   26
scf done:   -390.68549542
 C    -0.974607     0.559785    -0.198804 -0.215318
 C     0.371665     0.577822    -0.253663  0.124829
 C     1.092812    -0.759088    -0.306293 -0.362993
 C     0.351493    -1.867629     0.455258 -0.350542
 C    -1.137220    -1.867373     0.165557  0.133959
 C    -1.728713    -0.693292    -0.125470 -0.205452
 C     1.223128     1.830071    -0.344233 -0.179718
 C    -1.885726    -3.161472     0.307504 -0.538952
 H     0.793010    -2.843037     0.214008  0.132647
 H     0.494267    -1.732290     1.541591  0.144584
 H     1.189652    -1.049297    -1.366825  0.145076
 H     2.117640    -0.669288     0.073376  0.135647
 H    -1.544275     1.484876    -0.228374  0.111586
 H    -2.805027    -0.650848    -0.284704  0.110341
 H     2.000196     1.628839    -1.100553  0.121964
 C     0.459725     3.084673    -0.789781 -0.475112
 C     1.955479     2.097267     0.990146 -0.468175
 H    -1.522025    -3.917243    -0.403281  0.146965
 H    -1.746746    -3.591115     1.310879  0.149369
 H    -2.960201    -3.029778     0.142551  0.152155
 H    -0.058077     2.922822    -1.741310  0.145047
 H     1.150522     3.926148    -0.915458  0.135617
 H    -0.287413     3.384218    -0.045016  0.140198
 H     2.646900     2.942835     0.891156  0.136214
 H     1.234043     2.336924     1.780232  0.142733
 H     2.535753     1.228512     1.319776  0.138982
