5
* (null), Energy   -1000.0000000
C    -3.972973    1.195339    0.109772    0.548987    0.311112    0.010164
F    -2.640989    1.180352    0.127601    0.526643   -0.708597    1.064336
I    -4.695399    2.527587   -1.439156   -0.146851   -0.083300   -0.002620
F    -4.406405    1.594379    1.304680    0.270168    0.341604   -0.101256
F    -4.405773   -0.046788   -0.102897   -0.162983    0.726715   -0.952008
5
* Frequency(6)  262.7047
C    -3.910584    1.230696    0.110927    0.548987    0.311112    0.010164
F    -2.581138    1.099824    0.248557    0.526643   -0.708597    1.064336
I    -4.712088    2.518120   -1.439454   -0.146851   -0.083300   -0.002620
F    -4.375702    1.633201    1.293172    0.270168    0.341604   -0.101256
F    -4.424296    0.035800   -0.211087   -0.162983    0.726715   -0.952008
5
* Frequency(6)  262.7047
C    -3.854955    1.262220    0.111957    0.548987    0.311112    0.010164
F    -2.527774    1.028022    0.356406    0.526643   -0.708597    1.064336
I    -4.726968    2.509680   -1.439719   -0.146851   -0.083300   -0.002620
F    -4.348326    1.667815    1.282912    0.270168    0.341604   -0.101256
F    -4.440811    0.109437   -0.307554   -0.162983    0.726715   -0.952008
5
* Frequency(6)  262.7047
C    -3.812116    1.286498    0.112750    0.548987    0.311112    0.010164
F    -2.486678    0.972727    0.439460    0.526643   -0.708597    1.064336
I    -4.738428    2.503180   -1.439924   -0.146851   -0.083300   -0.002620
F    -4.327244    1.694472    1.275011    0.270168    0.341604   -0.101256
F    -4.453529    0.166146   -0.381843   -0.162983    0.726715   -0.952008
5
* Frequency(6)  262.7047
C    -3.786708    1.300896    0.113220    0.548987    0.311112    0.010164
F    -2.462304    0.939932    0.488720    0.526643   -0.708597    1.064336
I    -4.745224    2.499324   -1.440045   -0.146851   -0.083300   -0.002620
F    -4.314740    1.710282    1.270324    0.270168    0.341604   -0.101256
F    -4.461072    0.199779   -0.425904   -0.162983    0.726715   -0.952008
5
* Frequency(6)  262.7047
C    -3.781484    1.303857    0.113317    0.548987    0.311112    0.010164
F    -2.457293    0.933190    0.498847    0.526643   -0.708597    1.064336
I    -4.746621    2.498532   -1.440070   -0.146851   -0.083300   -0.002620
F    -4.312169    1.713532    1.269361    0.270168    0.341604   -0.101256
F    -4.462623    0.206694   -0.434961   -0.162983    0.726715   -0.952008
5
* Frequency(6)  262.7047
C    -3.797012    1.295057    0.113030    0.548987    0.311112    0.010164
F    -2.472189    0.953232    0.468743    0.526643   -0.708597    1.064336
I    -4.742468    2.500888   -1.439996   -0.146851   -0.083300   -0.002620
F    -4.319811    1.703870    1.272225    0.270168    0.341604   -0.101256
F    -4.458013    0.186139   -0.408035   -0.162983    0.726715   -0.952008
5
* Frequency(6)  262.7047
C    -3.831608    1.275452    0.112389    0.548987    0.311112    0.010164
F    -2.505376    0.997886    0.401671    0.526643   -0.708597    1.064336
I    -4.733214    2.506137   -1.439830   -0.146851   -0.083300   -0.002620
F    -4.336836    1.682343    1.278606    0.270168    0.341604   -0.101256
F    -4.447742    0.140344   -0.348042   -0.162983    0.726715   -0.952008
5
* Frequency(6)  262.7047
C    -3.881522    1.247165    0.111465    0.548987    0.311112    0.010164
F    -2.553259    1.062313    0.304900    0.526643   -0.708597    1.064336
I    -4.719862    2.513711   -1.439592   -0.146851   -0.083300   -0.002620
F    -4.361400    1.651284    1.287812    0.270168    0.341604   -0.101256
F    -4.432923    0.074269   -0.261484   -0.162983    0.726715   -0.952008
5
* Frequency(6)  262.7047
C    -3.941347    1.213262    0.110357    0.548987    0.311112    0.010164
F    -2.610650    1.139531    0.188916    0.526643   -0.708597    1.064336
I    -4.703859    2.522788   -1.439307   -0.146851   -0.083300   -0.002620
F    -4.390841    1.614058    1.298846    0.270168    0.341604   -0.101256
F    -4.415163   -0.004923   -0.157740   -0.162983    0.726715   -0.952008
5
* Frequency(6)  262.7047
C    -4.004600    1.177417    0.109186    0.548987    0.311112    0.010164
F    -2.671327    1.221173    0.066287    0.526643   -0.708597    1.064336
I    -4.686939    2.532386   -1.439005   -0.146851   -0.083300   -0.002620
F    -4.421969    1.574700    1.310513    0.270168    0.341604   -0.101256
F    -4.396384   -0.088653   -0.048053   -0.162983    0.726715   -0.952008
5
* Frequency(6)  262.7047
C    -4.064425    1.143514    0.108079    0.548987    0.311112    0.010164
F    -2.728718    1.298391   -0.049698    0.526643   -0.708597    1.064336
I    -4.670937    2.541463   -1.438720   -0.146851   -0.083300   -0.002620
F    -4.451410    1.537474    1.321547    0.270168    0.341604   -0.101256
F    -4.378624   -0.167845    0.055690   -0.162983    0.726715   -0.952008
5
* Frequency(6)  262.7047
C    -4.114339    1.115227    0.107155    0.548987    0.311112    0.010164
F    -2.776601    1.362818   -0.146469    0.526643   -0.708597    1.064336
I    -4.657585    2.549037   -1.438481   -0.146851   -0.083300   -0.002620
F    -4.475974    1.506415    1.330753    0.270168    0.341604   -0.101256
F    -4.363805   -0.233919    0.142249   -0.162983    0.726715   -0.952008
5
* Frequency(6)  262.7047
C    -4.148935    1.095622    0.106514    0.548987    0.311112    0.010164
F    -2.809789    1.407472   -0.213541    0.526643   -0.708597    1.064336
I    -4.648331    2.554286   -1.438316   -0.146851   -0.083300   -0.002620
F    -4.493000    1.484888    1.337134    0.270168    0.341604   -0.101256
F    -4.353534   -0.279715    0.202242   -0.162983    0.726715   -0.952008
5
* Frequency(6)  262.7047
C    -4.164463    1.086822    0.106227    0.548987    0.311112    0.010164
F    -2.824684    1.427514   -0.243644    0.526643   -0.708597    1.064336
I    -4.644177    2.556642   -1.438242   -0.146851   -0.083300   -0.002620
F    -4.500641    1.475226    1.339998    0.270168    0.341604   -0.101256
F    -4.348924   -0.300269    0.229168   -0.162983    0.726715   -0.952008
5
* Frequency(6)  262.7047
C    -4.159239    1.089782    0.106323    0.548987    0.311112    0.010164
F    -2.819673    1.420772   -0.233518    0.526643   -0.708597    1.064336
I    -4.645574    2.555850   -1.438267   -0.146851   -0.083300   -0.002620
F    -4.498071    1.478477    1.339035    0.270168    0.341604   -0.101256
F    -4.350475   -0.293355    0.220110   -0.162983    0.726715   -0.952008
5
* Frequency(6)  262.7047
C    -4.133831    1.104181    0.106794    0.548987    0.311112    0.010164
F    -2.795299    1.387977   -0.184258    0.526643   -0.708597    1.064336
I    -4.652371    2.551995   -1.438388   -0.146851   -0.083300   -0.002620
F    -4.485567    1.494287    1.334348    0.270168    0.341604   -0.101256
F    -4.358018   -0.259721    0.176050   -0.162983    0.726715   -0.952008
5
* Frequency(6)  262.7047
C    -4.090992    1.128458    0.107587    0.548987    0.311112    0.010164
F    -2.754203    1.332682   -0.101204    0.526643   -0.708597    1.064336
I    -4.663830    2.545494   -1.438593   -0.146851   -0.083300   -0.002620
F    -4.464485    1.520943    1.326447    0.270168    0.341604   -0.101256
F    -4.370736   -0.203013    0.101761   -0.162983    0.726715   -0.952008
5
* Frequency(6)  262.7047
C    -4.035363    1.159983    0.108617    0.548987    0.311112    0.010164
F    -2.700839    1.260881    0.006645    0.526643   -0.708597    1.064336
I    -4.678710    2.537054   -1.438858   -0.146851   -0.083300   -0.002620
F    -4.437108    1.555558    1.316187    0.270168    0.341604   -0.101256
F    -4.387251   -0.129375    0.005294   -0.162983    0.726715   -0.952008
5
* Frequency(6)  262.7047
C    -3.972973    1.195339    0.109772    0.548987    0.311112    0.010164
F    -2.640989    1.180352    0.127601    0.526643   -0.708597    1.064336
I    -4.695399    2.527587   -1.439156   -0.146851   -0.083300   -0.002620
F    -4.406405    1.594379    1.304680    0.270168    0.341604   -0.101256
F    -4.405773   -0.046788   -0.102897   -0.162983    0.726715   -0.952008
