11
* (null), Energy   -1000.0000000
H     1.096762   -0.291242    2.183763    0.036534    0.895955    0.047868
C     0.554162   -0.217926    1.227108    0.016403    0.403405    0.021566
C    -0.859310   -0.160528    1.227955   -0.016005   -0.394015   -0.021029
H    -1.427082   -0.187949    2.172039   -0.037918   -0.932989   -0.049851
C    -1.474716   -0.069286   -0.010350    0.000050    0.000728    0.000033
C    -0.833575   -0.029707   -1.238284    0.016009    0.393443    0.020996
H    -1.381592    0.043670   -2.191547    0.037957    0.931652    0.049781
C     0.579629   -0.088514   -1.214153   -0.016431   -0.403953   -0.021585
H     1.142061   -0.060743   -2.161714   -0.036447   -0.897164   -0.047909
C     1.262349   -0.181810    0.012218   -0.000036    0.000521    0.000021
H     2.362292   -0.227075    0.021284   -0.000005    0.001012    0.000081
11
* Frequency(6)  386.7190
H     1.100913   -0.189421    2.189203    0.036534    0.895955    0.047868
C     0.556026   -0.172081    1.229559    0.016403    0.403405    0.021566
C    -0.861129   -0.205306    1.225566   -0.016005   -0.394015   -0.021029
H    -1.431391   -0.293978    2.166374   -0.037918   -0.932989   -0.049851
C    -1.474710   -0.069203   -0.010346    0.000050    0.000728    0.000033
C    -0.831756    0.015005   -1.235898    0.016009    0.393443    0.020996
H    -1.377278    0.149547   -2.185889    0.037957    0.931652    0.049781
C     0.577762   -0.134421   -1.216606   -0.016431   -0.403953   -0.021585
H     1.137919   -0.162701   -2.167159   -0.036447   -0.897164   -0.047909
C     1.262345   -0.181750    0.012220   -0.000036    0.000521    0.000021
H     2.362292   -0.226960    0.021293   -0.000005    0.001012    0.000081
11
* Frequency(6)  386.7190
H     1.104615   -0.098634    2.194053    0.036534    0.895955    0.047868
C     0.557688   -0.131204    1.231744    0.016403    0.403405    0.021566
C    -0.862751   -0.245232    1.223435   -0.016005   -0.394015   -0.021029
H    -1.435233   -0.388518    2.161323   -0.037918   -0.932989   -0.049851
C    -1.474705   -0.069129   -0.010342    0.000050    0.000728    0.000033
C    -0.830134    0.054873   -1.233771    0.016009    0.393443    0.020996
H    -1.373432    0.243951   -2.180845    0.037957    0.931652    0.049781
C     0.576097   -0.175354   -1.218793   -0.016431   -0.403953   -0.021585
H     1.134226   -0.253610   -2.172013   -0.036447   -0.897164   -0.047909
C     1.262341   -0.181697    0.012222   -0.000036    0.000521    0.000021
H     2.362291   -0.226858    0.021302   -0.000005    0.001012    0.000081
11
* Frequency(6)  386.7190
H     1.107466   -0.028720    2.197788    0.036534    0.895955    0.047868
C     0.558968   -0.099725    1.233427    0.016403    0.403405    0.021566
C    -0.864000   -0.275978    1.221794   -0.016005   -0.394015   -0.021029
H    -1.438192   -0.461323    2.157433   -0.037918   -0.932989   -0.049851
C    -1.474701   -0.069072   -0.010340    0.000050    0.000728    0.000033
C    -0.828885    0.085574   -1.232132    0.016009    0.393443    0.020996
H    -1.370470    0.316652   -2.176960    0.037957    0.931652    0.049781
C     0.574815   -0.206876   -1.220478   -0.016431   -0.403953   -0.021585
H     1.131381   -0.323619   -2.175752   -0.036447   -0.897164   -0.047909
C     1.262339   -0.181657    0.012224   -0.000036    0.000521    0.000021
H     2.362291   -0.226779    0.021308   -0.000005    0.001012    0.000081
11
* Frequency(6)  386.7190
H     1.109157    0.012747    2.200004    0.036534    0.895955    0.047868
C     0.559727   -0.081055    1.234426    0.016403    0.403405    0.021566
C    -0.864741   -0.294214    1.220821   -0.016005   -0.394015   -0.021029
H    -1.439947   -0.504503    2.155126   -0.037918   -0.932989   -0.049851
C    -1.474699   -0.069039   -0.010338    0.000050    0.000728    0.000033
C    -0.828144    0.103784   -1.231161    0.016009    0.393443    0.020996
H    -1.368713    0.359770   -2.174657    0.037957    0.931652    0.049781
C     0.574054   -0.225571   -1.221477   -0.016431   -0.403953   -0.021585
H     1.129695   -0.365142   -2.177969   -0.036447   -0.897164   -0.047909
C     1.262337   -0.181633    0.012225   -0.000036    0.000521    0.000021
H     2.362290   -0.226732    0.021312   -0.000005    0.001012    0.000081
11
* Frequency(6)  386.7190
H     1.109505    0.021271    2.200459    0.036534    0.895955    0.047868
C     0.559883   -0.077216    1.234631    0.016403    0.403405    0.021566
C    -0.864893   -0.297963    1.220620   -0.016005   -0.394015   -0.021029
H    -1.440308   -0.513380    2.154651   -0.037918   -0.932989   -0.049851
C    -1.474698   -0.069032   -0.010338    0.000050    0.000728    0.000033
C    -0.827991    0.107527   -1.230961    0.016009    0.393443    0.020996
H    -1.368352    0.368634   -2.174183    0.037957    0.931652    0.049781
C     0.573898   -0.229415   -1.221682   -0.016431   -0.403953   -0.021585
H     1.129348   -0.373678   -2.178425   -0.036447   -0.897164   -0.047909
C     1.262337   -0.181628    0.012225   -0.000036    0.000521    0.000021
H     2.362290   -0.226722    0.021312   -0.000005    0.001012    0.000081
11
* Frequency(6)  386.7190
H     1.108471   -0.004070    2.199105    0.036534    0.895955    0.047868
C     0.559419   -0.088626    1.234021    0.016403    0.403405    0.021566
C    -0.864440   -0.286818    1.221215   -0.016005   -0.394015   -0.021029
H    -1.439235   -0.486991    2.156061   -0.037918   -0.932989   -0.049851
C    -1.474700   -0.069052   -0.010339    0.000050    0.000728    0.000033
C    -0.828444    0.096399   -1.231555    0.016009    0.393443    0.020996
H    -1.369426    0.342284   -2.175591    0.037957    0.931652    0.049781
C     0.574363   -0.217989   -1.221072   -0.016431   -0.403953   -0.021585
H     1.130379   -0.348302   -2.177070   -0.036447   -0.897164   -0.047909
C     1.262338   -0.181642    0.012225   -0.000036    0.000521    0.000021
H     2.362291   -0.226751    0.021310   -0.000005    0.001012    0.000081
11
* Frequency(6)  386.7190
H     1.106169   -0.060530    2.196089    0.036534    0.895955    0.047868
C     0.558386   -0.114048    1.232662    0.016403    0.403405    0.021566
C    -0.863432   -0.261989    1.222540   -0.016005   -0.394015   -0.021029
H    -1.436846   -0.428197    2.159203   -0.037918   -0.932989   -0.049851
C    -1.474703   -0.069098   -0.010341    0.000050    0.000728    0.000033
C    -0.829453    0.071605   -1.232878    0.016009    0.393443    0.020996
H    -1.371818    0.283573   -2.178728    0.037957    0.931652    0.049781
C     0.575398   -0.192533   -1.219711   -0.016431   -0.403953   -0.021585
H     1.132676   -0.291766   -2.174051   -0.036447   -0.897164   -0.047909
C     1.262340   -0.181675    0.012223   -0.000036    0.000521    0.000021
H     2.362291   -0.226815    0.021305   -0.000005    0.001012    0.000081
11
* Frequency(6)  386.7190
H     1.102847   -0.141992    2.191736    0.036534    0.895955    0.047868
C     0.556894   -0.150726    1.230701    0.016403    0.403405    0.021566
C    -0.861976   -0.226164    1.224452   -0.016005   -0.394015   -0.021029
H    -1.433398   -0.343368    2.163735   -0.037918   -0.932989   -0.049851
C    -1.474707   -0.069164   -0.010344    0.000050    0.000728    0.000033
C    -0.830908    0.035833   -1.234787    0.016009    0.393443    0.020996
H    -1.375269    0.198866   -2.183254    0.037957    0.931652    0.049781
C     0.576892   -0.155805   -1.217749   -0.016431   -0.403953   -0.021585
H     1.135989   -0.210194   -2.169695   -0.036447   -0.897164   -0.047909
C     1.262343   -0.181723    0.012221   -0.000036    0.000521    0.000021
H     2.362291   -0.226907    0.021298   -0.000005    0.001012    0.000081
11
* Frequency(6)  386.7190
H     1.098866   -0.239628    2.186520    0.036534    0.895955    0.047868
C     0.555107   -0.194687    1.228351    0.016403    0.403405    0.021566
C    -0.860232   -0.183227    1.226744   -0.016005   -0.394015   -0.021029
H    -1.429266   -0.241697    2.169168   -0.037918   -0.932989   -0.049851
C    -1.474713   -0.069244   -0.010348    0.000050    0.000728    0.000033
C    -0.832653   -0.007042   -1.237075    0.016009    0.393443    0.020996
H    -1.379405    0.097341   -2.188679    0.037957    0.931652    0.049781
C     0.578683   -0.111785   -1.215397   -0.016431   -0.403953   -0.021585
H     1.139961   -0.112427   -2.164474   -0.036447   -0.897164   -0.047909
C     1.262347   -0.181780    0.012219   -0.000036    0.000521    0.000021
H     2.362292   -0.227017    0.021289   -0.000005    0.001012    0.000081
11
* Frequency(6)  386.7190
H     1.094657   -0.342856    2.181005    0.036534    0.895955    0.047868
C     0.553217   -0.241165    1.225866    0.016403    0.403405    0.021566
C    -0.858388   -0.137830    1.229167   -0.016005   -0.394015   -0.021029
H    -1.424897   -0.134201    2.174911   -0.037918   -0.932989   -0.049851
C    -1.474718   -0.069327   -0.010351    0.000050    0.000728    0.000033
C    -0.834498   -0.052373   -1.239494    0.016009    0.393443    0.020996
H    -1.383778   -0.010001   -2.194414    0.037957    0.931652    0.049781
C     0.580576   -0.065243   -1.212910   -0.016431   -0.403953   -0.021585
H     1.144161   -0.009059   -2.158954   -0.036447   -0.897164   -0.047909
C     1.262351   -0.181840    0.012217   -0.000036    0.000521    0.000021
H     2.362292   -0.227134    0.021279   -0.000005    0.001012    0.000081
11
* Frequency(6)  386.7190
H     1.090676   -0.440491    2.175789    0.036534    0.895955    0.047868
C     0.551429   -0.285126    1.223516    0.016403    0.403405    0.021566
C    -0.856644   -0.094893    1.231458   -0.016005   -0.394015   -0.021029
H    -1.420765   -0.032530    2.180344   -0.037918   -0.932989   -0.049851
C    -1.474724   -0.069407   -0.010355    0.000050    0.000728    0.000033
C    -0.836242   -0.095248   -1.241782    0.016009    0.393443    0.020996
H    -1.387914   -0.111526   -2.199839    0.037957    0.931652    0.049781
C     0.582367   -0.021223   -1.210557   -0.016431   -0.403953   -0.021585
H     1.148132    0.088708   -2.153733   -0.036447   -0.897164   -0.047909
C     1.262355   -0.181896    0.012214   -0.000036    0.000521    0.000021
H     2.362293   -0.227244    0.021271   -0.000005    0.001012    0.000081
11
* Frequency(6)  386.7190
H     1.087354   -0.521953    2.171436    0.036534    0.895955    0.047868
C     0.549938   -0.321804    1.221555    0.016403    0.403405    0.021566
C    -0.855189   -0.059068    1.233370   -0.016005   -0.394015   -0.021029
H    -1.417318    0.052299    2.184876   -0.037918   -0.932989   -0.049851
C    -1.474728   -0.069473   -0.010358    0.000050    0.000728    0.000033
C    -0.837698   -0.131020   -1.243691    0.016009    0.393443    0.020996
H    -1.391366   -0.196234   -2.204365    0.037957    0.931652    0.049781
C     0.583861    0.015505   -1.208595   -0.016431   -0.403953   -0.021585
H     1.151446    0.170280   -2.149378   -0.036447   -0.897164   -0.047909
C     1.262358   -0.181944    0.012212   -0.000036    0.000521    0.000021
H     2.362293   -0.227336    0.021263   -0.000005    0.001012    0.000081
11
* Frequency(6)  386.7190
H     1.085052   -0.578414    2.168420    0.036534    0.895955    0.047868
C     0.548904   -0.347226    1.220196    0.016403    0.403405    0.021566
C    -0.854180   -0.034238    1.234696   -0.016005   -0.394015   -0.021029
H    -1.414928    0.111093    2.188018   -0.037918   -0.932989   -0.049851
C    -1.474731   -0.069519   -0.010360    0.000050    0.000728    0.000033
C    -0.838707   -0.155814   -1.245014    0.016009    0.393443    0.020996
H    -1.393757   -0.254944   -2.207502    0.037957    0.931652    0.049781
C     0.584896    0.040961   -1.207235   -0.016431   -0.403953   -0.021585
H     1.153743    0.226817   -2.146358   -0.036447   -0.897164   -0.047909
C     1.262361   -0.181977    0.012211   -0.000036    0.000521    0.000021
H     2.362294   -0.227400    0.021258   -0.000005    0.001012    0.000081
11
* Frequency(6)  386.7190
H     1.084018   -0.603755    2.167066    0.036534    0.895955    0.047868
C     0.548440   -0.358636    1.219586    0.016403    0.403405    0.021566
C    -0.853728   -0.023094    1.235290   -0.016005   -0.394015   -0.021029
H    -1.413856    0.137482    2.189428   -0.037918   -0.932989   -0.049851
C    -1.474733   -0.069539   -0.010361    0.000050    0.000728    0.000033
C    -0.839159   -0.166942   -1.245608    0.016009    0.393443    0.020996
H    -1.394831   -0.281295   -2.208910    0.037957    0.931652    0.049781
C     0.585361    0.052387   -1.206624   -0.016431   -0.403953   -0.021585
H     1.154774    0.252192   -2.145003   -0.036447   -0.897164   -0.047909
C     1.262362   -0.181991    0.012210   -0.000036    0.000521    0.000021
H     2.362294   -0.227428    0.021256   -0.000005    0.001012    0.000081
11
* Frequency(6)  386.7190
H     1.084366   -0.595230    2.167522    0.036534    0.895955    0.047868
C     0.548596   -0.354797    1.219791    0.016403    0.403405    0.021566
C    -0.853880   -0.026843    1.235090   -0.016005   -0.394015   -0.021029
H    -1.414217    0.128605    2.188953   -0.037918   -0.932989   -0.049851
C    -1.474732   -0.069532   -0.010361    0.000050    0.000728    0.000033
C    -0.839007   -0.163199   -1.245408    0.016009    0.393443    0.020996
H    -1.394470   -0.272430   -2.208437    0.037957    0.931652    0.049781
C     0.585204    0.048543   -1.206829   -0.016431   -0.403953   -0.021585
H     1.154427    0.243656   -2.145459   -0.036447   -0.897164   -0.047909
C     1.262361   -0.181986    0.012211   -0.000036    0.000521    0.000021
H     2.362294   -0.227419    0.021257   -0.000005    0.001012    0.000081
11
* Frequency(6)  386.7190
H     1.086057   -0.553764    2.169737    0.036534    0.895955    0.047868
C     0.549356   -0.336127    1.220789    0.016403    0.403405    0.021566
C    -0.854621   -0.045079    1.234117   -0.016005   -0.394015   -0.021029
H    -1.415972    0.085425    2.186646   -0.037918   -0.932989   -0.049851
C    -1.474730   -0.069499   -0.010359    0.000050    0.000728    0.000033
C    -0.838266   -0.144989   -1.244436    0.016009    0.393443    0.020996
H    -1.392713   -0.229312   -2.206133    0.037957    0.931652    0.049781
C     0.584444    0.029848   -1.207828   -0.016431   -0.403953   -0.021585
H     1.152740    0.202134   -2.147677   -0.036447   -0.897164   -0.047909
C     1.262360   -0.181962    0.012212   -0.000036    0.000521    0.000021
H     2.362293   -0.227372    0.021260   -0.000005    0.001012    0.000081
11
* Frequency(6)  386.7190
H     1.088908   -0.483849    2.173472    0.036534    0.895955    0.047868
C     0.550636   -0.304648    1.222472    0.016403    0.403405    0.021566
C    -0.855870   -0.075825    1.232476   -0.016005   -0.394015   -0.021029
H    -1.418930    0.012620    2.182756   -0.037918   -0.932989   -0.049851
C    -1.474726   -0.069442   -0.010357    0.000050    0.000728    0.000033
C    -0.837017   -0.114288   -1.242798    0.016009    0.393443    0.020996
H    -1.389751   -0.156612   -2.202248    0.037957    0.931652    0.049781
C     0.583162   -0.001674   -1.209513   -0.016431   -0.403953   -0.021585
H     1.149896    0.132124   -2.151415   -0.036447   -0.897164   -0.047909
C     1.262357   -0.181922    0.012213   -0.000036    0.000521    0.000021
H     2.362293   -0.227293    0.021267   -0.000005    0.001012    0.000081
11
* Frequency(6)  386.7190
H     1.092610   -0.393062    2.178323    0.036534    0.895955    0.047868
C     0.552298   -0.263771    1.224657    0.016403    0.403405    0.021566
C    -0.857491   -0.115751    1.230345   -0.016005   -0.394015   -0.021029
H    -1.422773   -0.081920    2.177705   -0.037918   -0.932989   -0.049851
C    -1.474721   -0.069368   -0.010353    0.000050    0.000728    0.000033
C    -0.835395   -0.074420   -1.240670    0.016009    0.393443    0.020996
H    -1.385905   -0.062208   -2.197204    0.037957    0.931652    0.049781
C     0.581497   -0.042607   -1.211700   -0.016431   -0.403953   -0.021585
H     1.146203    0.041215   -2.156270   -0.036447   -0.897164   -0.047909
C     1.262353   -0.181869    0.012215   -0.000036    0.000521    0.000021
H     2.362293   -0.227190    0.021275   -0.000005    0.001012    0.000081
11
* Frequency(6)  386.7190
H     1.096762   -0.291242    2.183763    0.036534    0.895955    0.047868
C     0.554162   -0.217926    1.227108    0.016403    0.403405    0.021566
C    -0.859310   -0.160528    1.227955   -0.016005   -0.394015   -0.021029
H    -1.427082   -0.187949    2.172039   -0.037918   -0.932989   -0.049851
C    -1.474716   -0.069286   -0.010350    0.000050    0.000728    0.000033
C    -0.833575   -0.029707   -1.238284    0.016009    0.393443    0.020996
H    -1.381592    0.043670   -2.191547    0.037957    0.931652    0.049781
C     0.579629   -0.088514   -1.214153   -0.016431   -0.403953   -0.021585
H     1.142061   -0.060743   -2.161714   -0.036447   -0.897164   -0.047909
C     1.262349   -0.181810    0.012218   -0.000036    0.000521    0.000021
H     2.362292   -0.227075    0.021284   -0.000005    0.001012    0.000081
