14
	Energy:      12.5764761
 C            -0.9190477593   1.2208295175   0.0000000000
 C            -2.1222710959   1.9439062896   0.0000000000
 C            -3.3377324175   1.2677291687  -0.0000000000
 C            -3.3594601276  -0.1326885568  -0.0000000000
 C            -2.1651484248  -0.8574503049  -0.0000000000
 C            -0.9461251809  -0.1803034171   0.0000000000
 C             0.3791969462   1.9329271115   0.0000000000
 O             0.5063426683   3.1426399474  -0.0000000000
 H             1.2721108470   1.2677086491   0.0000000000
 H            -2.0761998052   3.0290317304   0.0000000000
 H            -4.2709196288   1.8248227583   0.0000000000
 H            -0.0095964656  -0.7351204753  -0.0000000000
 H            -4.3110689775  -0.6582604246   0.0000000000
 H            -2.1860469184  -1.9439738750   0.0000000000