5
* (null), Energy   -1000.0000000
C    -3.972973    1.195339    0.109772    0.260320   -0.479268    0.573809
F    -2.640989    1.180352    0.127601    0.244897   -0.630637    0.744866
I    -4.695399    2.527587   -1.439156   -0.175350    0.323146   -0.380287
F    -4.406405    1.594379    1.304680    0.390909   -0.687976    0.677695
F    -4.405773   -0.046788   -0.102897    0.370890   -0.536886    0.754844
5
* Frequency(8)  277.2042
C    -3.943389    1.140873    0.174982    0.260320   -0.479268    0.573809
F    -2.613157    1.108684    0.212251    0.244897   -0.630637    0.744866
I    -4.715327    2.564311   -1.482374   -0.175350    0.323146   -0.380287
F    -4.361981    1.516194    1.381696    0.390909   -0.687976    0.677695
F    -4.363624   -0.107802   -0.017113    0.370890   -0.536886    0.754844
5
* Frequency(8)  277.2042
C    -3.917011    1.092309    0.233126    0.260320   -0.479268    0.573809
F    -2.588342    1.044781    0.287728    0.244897   -0.630637    0.744866
I    -4.733095    2.597055   -1.520908   -0.175350    0.323146   -0.380287
F    -4.322370    1.446482    1.450367    0.390909   -0.687976    0.677695
F    -4.326042   -0.162205    0.059376    0.370890   -0.536886    0.754844
5
* Frequency(8)  277.2042
C    -3.896697    1.054910    0.277903    0.260320   -0.479268    0.573809
F    -2.569232    0.995570    0.345853    0.244897   -0.630637    0.744866
I    -4.746778    2.622272   -1.550583   -0.175350    0.323146   -0.380287
F    -4.291866    1.392797    1.503250    0.390909   -0.687976    0.677695
F    -4.297100   -0.204100    0.118279    0.370890   -0.536886    0.754844
5
* Frequency(8)  277.2042
C    -3.884649    1.032728    0.304460    0.260320   -0.479268    0.573809
F    -2.557898    0.966383    0.380327    0.244897   -0.630637    0.744866
I    -4.754894    2.637227   -1.568183   -0.175350    0.323146   -0.380287
F    -4.273774    1.360956    1.534615    0.390909   -0.687976    0.677695
F    -4.279934   -0.228948    0.153214    0.370890   -0.536886    0.754844
5
* Frequency(8)  277.2042
C    -3.882173    1.028168    0.309919    0.260320   -0.479268    0.573809
F    -2.555568    0.960383    0.387414    0.244897   -0.630637    0.744866
I    -4.756562    2.640302   -1.571802   -0.175350    0.323146   -0.380287
F    -4.270055    1.354410    1.541063    0.390909   -0.687976    0.677695
F    -4.276405   -0.234056    0.160396    0.370890   -0.536886    0.754844
5
* Frequency(8)  277.2042
C    -3.889535    1.041724    0.293690    0.260320   -0.479268    0.573809
F    -2.562494    0.978220    0.366346    0.244897   -0.630637    0.744866
I    -4.751603    2.631162   -1.561046   -0.175350    0.323146   -0.380287
F    -4.281111    1.373869    1.521895    0.390909   -0.687976    0.677695
F    -4.286896   -0.218871    0.139046    0.370890   -0.536886    0.754844
5
* Frequency(8)  277.2042
C    -3.905940    1.071926    0.257530    0.260320   -0.479268    0.573809
F    -2.577927    1.017961    0.319407    0.244897   -0.630637    0.744866
I    -4.740552    2.610798   -1.537081   -0.175350    0.323146   -0.380287
F    -4.305745    1.417223    1.479188    0.390909   -0.687976    0.677695
F    -4.310268   -0.185038    0.091478    0.370890   -0.536886    0.754844
5
* Frequency(8)  277.2042
C    -3.929609    1.115502    0.205358    0.260320   -0.479268    0.573809
F    -2.600193    1.075300    0.251682    0.244897   -0.630637    0.744866
I    -4.724609    2.581417   -1.502505   -0.175350    0.323146   -0.380287
F    -4.341287    1.479775    1.417571    0.390909   -0.687976    0.677695
F    -4.343990   -0.136223    0.022846    0.370890   -0.536886    0.754844
5
* Frequency(8)  277.2042
C    -3.957977    1.167730    0.142828    0.260320   -0.479268    0.573809
F    -2.626881    1.144022    0.170511    0.244897   -0.630637    0.744866
I    -4.705501    2.546203   -1.461064   -0.175350    0.323146   -0.380287
F    -4.383886    1.554746    1.343720    0.390909   -0.687976    0.677695
F    -4.384407   -0.077717   -0.059411    0.370890   -0.536886    0.754844
5
* Frequency(8)  277.2042
C    -3.987970    1.222949    0.076716    0.260320   -0.479268    0.573809
F    -2.655097    1.216682    0.084691    0.244897   -0.630637    0.744866
I    -4.685298    2.508971   -1.417248   -0.175350    0.323146   -0.380287
F    -4.428925    1.634012    1.265639    0.390909   -0.687976    0.677695
F    -4.427140   -0.015859   -0.146382    0.370890   -0.536886    0.754844
5
* Frequency(8)  277.2042
C    -4.016338    1.275177    0.014186    0.260320   -0.479268    0.573809
F    -2.681784    1.285405    0.003520    0.244897   -0.630637    0.744866
I    -4.666189    2.473757   -1.375807   -0.175350    0.323146   -0.380287
F    -4.471524    1.708983    1.191788    0.390909   -0.687976    0.677695
F    -4.467557    0.042647   -0.228640    0.370890   -0.536886    0.754844
5
* Frequency(8)  277.2042
C    -4.040007    1.318752   -0.037986    0.260320   -0.479268    0.573809
F    -2.704050    1.342743   -0.064204    0.244897   -0.630637    0.744866
I    -4.650246    2.444376   -1.341231   -0.175350    0.323146   -0.380287
F    -4.507066    1.771535    1.130171    0.390909   -0.687976    0.677695
F    -4.501279    0.091462   -0.297272    0.370890   -0.536886    0.754844
5
* Frequency(8)  277.2042
C    -4.056412    1.348955   -0.074146    0.260320   -0.479268    0.573809
F    -2.719483    1.382485   -0.111144    0.244897   -0.630637    0.744866
I    -4.639196    2.424012   -1.317266   -0.175350    0.323146   -0.380287
F    -4.531700    1.814890    1.087464    0.390909   -0.687976    0.677695
F    -4.524651    0.125295   -0.344840    0.370890   -0.536886    0.754844
5
* Frequency(8)  277.2042
C    -4.063774    1.362510   -0.090375    0.260320   -0.479268    0.573809
F    -2.726410    1.400321   -0.132211    0.244897   -0.630637    0.744866
I    -4.634236    2.414872   -1.306510   -0.175350    0.323146   -0.380287
F    -4.542756    1.834348    1.068296    0.390909   -0.687976    0.677695
F    -4.535141    0.140480   -0.366190    0.370890   -0.536886    0.754844
5
* Frequency(8)  277.2042
C    -4.061298    1.357950   -0.084916    0.260320   -0.479268    0.573809
F    -2.724080    1.394321   -0.125124    0.244897   -0.630637    0.744866
I    -4.635905    2.417947   -1.310128   -0.175350    0.323146   -0.380287
F    -4.539037    1.827803    1.074744    0.390909   -0.687976    0.677695
F    -4.531613    0.135372   -0.359008    0.370890   -0.536886    0.754844
5
* Frequency(8)  277.2042
C    -4.049250    1.335769   -0.058359    0.260320   -0.479268    0.573809
F    -2.712745    1.365134   -0.090651    0.244897   -0.630637    0.744866
I    -4.644020    2.432903   -1.327729   -0.175350    0.323146   -0.380287
F    -4.520945    1.795962    1.106109    0.390909   -0.687976    0.677695
F    -4.514447    0.110524   -0.324072    0.370890   -0.536886    0.754844
5
* Frequency(8)  277.2042
C    -4.028936    1.298370   -0.013582    0.260320   -0.479268    0.573809
F    -2.693635    1.315923   -0.032526    0.244897   -0.630637    0.744866
I    -4.657704    2.458119   -1.357404   -0.175350    0.323146   -0.380287
F    -4.490441    1.742276    1.158992    0.390909   -0.687976    0.677695
F    -4.485505    0.068629   -0.265169    0.370890   -0.536886    0.754844
5
* Frequency(8)  277.2042
C    -4.002558    1.249806    0.044561    0.260320   -0.479268    0.573809
F    -2.668820    1.252021    0.042951    0.244897   -0.630637    0.744866
I    -4.675472    2.490863   -1.395938   -0.175350    0.323146   -0.380287
F    -4.450830    1.672564    1.227663    0.390909   -0.687976    0.677695
F    -4.447923    0.014226   -0.188681    0.370890   -0.536886    0.754844
5
* Frequency(8)  277.2042
C    -3.972973    1.195339    0.109772    0.260320   -0.479268    0.573809
F    -2.640989    1.180352    0.127601    0.244897   -0.630637    0.744866
I    -4.695399    2.527587   -1.439156   -0.175350    0.323146   -0.380287
F    -4.406405    1.594379    1.304680    0.390909   -0.687976    0.677695
F    -4.405773   -0.046788   -0.102897    0.370890   -0.536886    0.754844
