18
	Energy:      82.5046671
 C            -1.5288886049   2.3133652427   0.1752928320
 C            -2.2312707284   1.0116128661  -0.2440959449
 C            -1.4720057486  -0.2259684714   0.2620803984
 C            -0.0589775061   2.3303487923  -0.2763944166
 C             0.7002866836   1.0927677255   0.2297846133
 C            -0.0020950902  -0.2089833870  -0.1896081093
 H            -2.2932947162   0.9722504463  -1.3424215310
 H            -3.2650245862   1.0007618388   0.1261887176
 H            -1.5697871657   2.4076923635   1.2711024494
 H            -2.0623483550   3.1821624699  -0.2325144520
 H             0.4353207530   3.2477317042   0.0698474397
 H            -0.0209726222   2.3518271696  -1.3762416276
 H            -1.9663039232  -1.1433508368  -0.0841625404
 H            -1.5100068110  -0.2474510911   1.3619277623
 H             0.0388042013  -0.3033087452  -1.2854182512
 H             0.5313656479  -1.0777814376   0.2181979400
 H             0.7623083103   1.1321259923   1.3281105010
 H             1.7340411085   1.1036171656  -0.1404989418
