4
* (null), Energy   -1000.0000000
C    -1.773631    0.200455   -0.193302    0.330905   -0.976667   -0.247144
Br    0.042106   -0.151778   -0.244444    0.813113    0.357009    0.035839
Br   -3.012169   -1.167475   -0.327006   -0.865554   -0.201166   -0.009527
H    -2.094356    1.189938   -0.469918    0.213853   -0.715436    0.859259
4
* Frequency(6)  187.1900
C    -1.736025    0.089462   -0.221389    0.330905   -0.976667   -0.247144
Br    0.134512   -0.111206   -0.240371    0.813113    0.357009    0.035839
Br   -3.110535   -1.190336   -0.328089   -0.865554   -0.201166   -0.009527
H    -2.070053    1.108632   -0.372268    0.213853   -0.715436    0.859259
4
* Frequency(6)  187.1900
C    -1.702495   -0.009503   -0.246432    0.330905   -0.976667   -0.247144
Br    0.216905   -0.075031   -0.236740    0.813113    0.357009    0.035839
Br   -3.198241   -1.210720   -0.329054   -0.865554   -0.201166   -0.009527
H    -2.048383    1.036137   -0.285199    0.213853   -0.715436    0.859259
4
* Frequency(6)  187.1900
C    -1.676673   -0.085716   -0.265717    0.330905   -0.976667   -0.247144
Br    0.280355   -0.047172   -0.233943    0.813113    0.357009    0.035839
Br   -3.265784   -1.226418   -0.329798   -0.865554   -0.201166   -0.009527
H    -2.031696    0.980309   -0.218148    0.213853   -0.715436    0.859259
4
* Frequency(6)  187.1900
C    -1.661358   -0.130918   -0.277155    0.330905   -0.976667   -0.247144
Br    0.317987   -0.030649   -0.232284    0.813113    0.357009    0.035839
Br   -3.305843   -1.235728   -0.330239   -0.865554   -0.201166   -0.009527
H    -2.021798    0.947198   -0.178380    0.213853   -0.715436    0.859259
4
* Frequency(6)  187.1900
C    -1.658210   -0.140211   -0.279507    0.330905   -0.976667   -0.247144
Br    0.325724   -0.027252   -0.231943    0.813113    0.357009    0.035839
Br   -3.314078   -1.237642   -0.330329   -0.865554   -0.201166   -0.009527
H    -2.019763    0.940391   -0.170204    0.213853   -0.715436    0.859259
4
* Frequency(6)  187.1900
C    -1.667569   -0.112587   -0.272517    0.330905   -0.976667   -0.247144
Br    0.302726   -0.037350   -0.232957    0.813113    0.357009    0.035839
Br   -3.289597   -1.231953   -0.330060   -0.865554   -0.201166   -0.009527
H    -2.025812    0.960626   -0.194508    0.213853   -0.715436    0.859259
4
* Frequency(6)  187.1900
C    -1.688422   -0.051040   -0.256942    0.330905   -0.976667   -0.247144
Br    0.251486   -0.059847   -0.235215    0.813113    0.357009    0.035839
Br   -3.235052   -1.219276   -0.329460   -0.865554   -0.201166   -0.009527
H    -2.039288    1.005711   -0.248656    0.213853   -0.715436    0.859259
4
* Frequency(6)  187.1900
C    -1.718508    0.037760   -0.234472    0.330905   -0.976667   -0.247144
Br    0.177556   -0.092307   -0.238474    0.813113    0.357009    0.035839
Br   -3.156355   -1.200985   -0.328593   -0.865554   -0.201166   -0.009527
H    -2.058732    1.070759   -0.326781    0.213853   -0.715436    0.859259
4
* Frequency(6)  187.1900
C    -1.754568    0.144191   -0.207539    0.330905   -0.976667   -0.247144
Br    0.088948   -0.131212   -0.242379    0.813113    0.357009    0.035839
Br   -3.062032   -1.179064   -0.327555   -0.865554   -0.201166   -0.009527
H    -2.082037    1.148723   -0.420418    0.213853   -0.715436    0.859259
4
* Frequency(6)  187.1900
C    -1.792694    0.256719   -0.179064    0.330905   -0.976667   -0.247144
Br   -0.004736   -0.172345   -0.246509    0.813113    0.357009    0.035839
Br   -2.962306   -1.155886   -0.326457   -0.865554   -0.201166   -0.009527
H    -2.106676    1.231153   -0.519418    0.213853   -0.715436    0.859259
4
* Frequency(6)  187.1900
C    -1.828753    0.363150   -0.152132    0.330905   -0.976667   -0.247144
Br   -0.093343   -0.211250   -0.250414    0.813113    0.357009    0.035839
Br   -2.867984   -1.133964   -0.325419   -0.865554   -0.201166   -0.009527
H    -2.129980    1.309116   -0.613055    0.213853   -0.715436    0.859259
4
* Frequency(6)  187.1900
C    -1.858840    0.451950   -0.129662    0.330905   -0.976667   -0.247144
Br   -0.167273   -0.243710   -0.253673    0.813113    0.357009    0.035839
Br   -2.789286   -1.115674   -0.324553   -0.865554   -0.201166   -0.009527
H    -2.149424    1.374165   -0.691180    0.213853   -0.715436    0.859259
4
* Frequency(6)  187.1900
C    -1.879693    0.513497   -0.114087    0.330905   -0.976667   -0.247144
Br   -0.218513   -0.266207   -0.255931    0.813113    0.357009    0.035839
Br   -2.734741   -1.102997   -0.323953   -0.865554   -0.201166   -0.009527
H    -2.162901    1.419250   -0.745328    0.213853   -0.715436    0.859259
4
* Frequency(6)  187.1900
C    -1.889052    0.541121   -0.107097    0.330905   -0.976667   -0.247144
Br   -0.241511   -0.276305   -0.256945    0.813113    0.357009    0.035839
Br   -2.710260   -1.097307   -0.323683   -0.865554   -0.201166   -0.009527
H    -2.168949    1.439485   -0.769631    0.213853   -0.715436    0.859259
4
* Frequency(6)  187.1900
C    -1.885903    0.531829   -0.109448    0.330905   -0.976667   -0.247144
Br   -0.233775   -0.272908   -0.256604    0.813113    0.357009    0.035839
Br   -2.718495   -1.099221   -0.323774   -0.865554   -0.201166   -0.009527
H    -2.166914    1.432678   -0.761456    0.213853   -0.715436    0.859259
4
* Frequency(6)  187.1900
C    -1.870589    0.486627   -0.120887    0.330905   -0.976667   -0.247144
Br   -0.196143   -0.256385   -0.254945    0.813113    0.357009    0.035839
Br   -2.758555   -1.108532   -0.324215   -0.865554   -0.201166   -0.009527
H    -2.157017    1.399567   -0.721688    0.213853   -0.715436    0.859259
4
* Frequency(6)  187.1900
C    -1.844767    0.410414   -0.140172    0.330905   -0.976667   -0.247144
Br   -0.132692   -0.228526   -0.252149    0.813113    0.357009    0.035839
Br   -2.826097   -1.124229   -0.324958   -0.865554   -0.201166   -0.009527
H    -2.140329    1.343738   -0.654637    0.213853   -0.715436    0.859259
4
* Frequency(6)  187.1900
C    -1.811236    0.311448   -0.165215    0.330905   -0.976667   -0.247144
Br   -0.050300   -0.192351   -0.248517    0.813113    0.357009    0.035839
Br   -2.913803   -1.144613   -0.325923   -0.865554   -0.201166   -0.009527
H    -2.118660    1.271244   -0.567568    0.213853   -0.715436    0.859259
4
* Frequency(6)  187.1900
C    -1.773631    0.200455   -0.193302    0.330905   -0.976667   -0.247144
Br    0.042106   -0.151778   -0.244444    0.813113    0.357009    0.035839
Br   -3.012169   -1.167475   -0.327006   -0.865554   -0.201166   -0.009527
H    -2.094356    1.189938   -0.469918    0.213853   -0.715436    0.859259
