4
* (null), Energy   -1000.0000000
C    -1.773631    0.200455   -0.193302   -0.055140    0.135579    0.366381
Br    0.042106   -0.151778   -0.244444    0.032254    0.002065   -0.014694
Br   -3.012169   -1.167475   -0.327006   -0.026294   -0.017393   -0.016289
H    -2.094356    1.189938   -0.469918    0.184633   -0.400486   -1.909802
4
* Frequency(7)  336.5171
C    -1.779897    0.215863   -0.151665   -0.055140    0.135579    0.366381
Br    0.045772   -0.151544   -0.246114    0.032254    0.002065   -0.014694
Br   -3.015157   -1.169451   -0.328857   -0.026294   -0.017393   -0.016289
H    -2.073374    1.144425   -0.686957    0.184633   -0.400486   -1.909802
4
* Frequency(7)  336.5171
C    -1.785485    0.229601   -0.114539   -0.055140    0.135579    0.366381
Br    0.049040   -0.151335   -0.247603    0.032254    0.002065   -0.014694
Br   -3.017822   -1.171214   -0.330508   -0.026294   -0.017393   -0.016289
H    -2.054665    1.103844   -0.880477    0.184633   -0.400486   -1.909802
4
* Frequency(7)  336.5171
C    -1.789787    0.240181   -0.085949   -0.055140    0.135579    0.366381
Br    0.051557   -0.151173   -0.248749    0.032254    0.002065   -0.014694
Br   -3.019874   -1.172571   -0.331779   -0.026294   -0.017393   -0.016289
H    -2.040257    1.072592   -1.029506    0.184633   -0.400486   -1.909802
4
* Frequency(7)  336.5171
C    -1.792339    0.246456   -0.068992   -0.055140    0.135579    0.366381
Br    0.053050   -0.151078   -0.249430    0.032254    0.002065   -0.014694
Br   -3.021090   -1.173376   -0.332533   -0.026294   -0.017393   -0.016289
H    -2.031712    1.054057   -1.117895    0.184633   -0.400486   -1.909802
4
* Frequency(7)  336.5171
C    -1.792864    0.247746   -0.065507   -0.055140    0.135579    0.366381
Br    0.053357   -0.151058   -0.249569    0.032254    0.002065   -0.014694
Br   -3.021341   -1.173542   -0.332688   -0.026294   -0.017393   -0.016289
H    -2.029956    1.050247   -1.136066    0.184633   -0.400486   -1.909802
4
* Frequency(7)  336.5171
C    -1.791304    0.243911   -0.075869   -0.055140    0.135579    0.366381
Br    0.052444   -0.151117   -0.249154    0.032254    0.002065   -0.014694
Br   -3.020597   -1.173050   -0.332227   -0.026294   -0.017393   -0.016289
H    -2.035178    1.061574   -1.082049    0.184633   -0.400486   -1.909802
4
* Frequency(7)  336.5171
C    -1.787830    0.235367   -0.098958   -0.055140    0.135579    0.366381
Br    0.050412   -0.151247   -0.248228    0.032254    0.002065   -0.014694
Br   -3.018940   -1.171954   -0.331201   -0.026294   -0.017393   -0.016289
H    -2.046813    1.086811   -0.961698    0.184633   -0.400486   -1.909802
4
* Frequency(7)  336.5171
C    -1.782816    0.223040   -0.132270   -0.055140    0.135579    0.366381
Br    0.047479   -0.151434   -0.246892    0.032254    0.002065   -0.014694
Br   -3.016549   -1.170372   -0.329720   -0.026294   -0.017393   -0.016289
H    -2.063600    1.123224   -0.788056    0.184633   -0.400486   -1.909802
4
* Frequency(7)  336.5171
C    -1.776807    0.208266   -0.172195   -0.055140    0.135579    0.366381
Br    0.043964   -0.151659   -0.245291    0.032254    0.002065   -0.014694
Br   -3.013684   -1.168477   -0.327945   -0.026294   -0.017393   -0.016289
H    -2.083720    1.166867   -0.579938    0.184633   -0.400486   -1.909802
4
* Frequency(7)  336.5171
C    -1.770454    0.192645   -0.214408   -0.055140    0.135579    0.366381
Br    0.040248   -0.151897   -0.243598    0.032254    0.002065   -0.014694
Br   -3.010654   -1.166473   -0.326068   -0.026294   -0.017393   -0.016289
H    -2.104993    1.213009   -0.359898    0.184633   -0.400486   -1.909802
4
* Frequency(7)  336.5171
C    -1.764445    0.177870   -0.254334   -0.055140    0.135579    0.366381
Br    0.036733   -0.152122   -0.241996    0.032254    0.002065   -0.014694
Br   -3.007789   -1.164577   -0.324293   -0.026294   -0.017393   -0.016289
H    -2.125113    1.256652   -0.151780    0.184633   -0.400486   -1.909802
4
* Frequency(7)  336.5171
C    -1.759432    0.165543   -0.287646   -0.055140    0.135579    0.366381
Br    0.033801   -0.152310   -0.240660    0.032254    0.002065   -0.014694
Br   -3.005398   -1.162996   -0.322812   -0.026294   -0.017393   -0.016289
H    -2.141900    1.293065    0.021863    0.184633   -0.400486   -1.909802
4
* Frequency(7)  336.5171
C    -1.755957    0.156999   -0.310735   -0.055140    0.135579    0.366381
Br    0.031768   -0.152440   -0.239734    0.032254    0.002065   -0.014694
Br   -3.003741   -1.161900   -0.321785   -0.026294   -0.017393   -0.016289
H    -2.153535    1.318302    0.142213    0.184633   -0.400486   -1.909802
4
* Frequency(7)  336.5171
C    -1.754398    0.153165   -0.321097   -0.055140    0.135579    0.366381
Br    0.030856   -0.152499   -0.239319    0.032254    0.002065   -0.014694
Br   -3.002998   -1.161408   -0.321325   -0.026294   -0.017393   -0.016289
H    -2.158757    1.329629    0.196230    0.184633   -0.400486   -1.909802
4
* Frequency(7)  336.5171
C    -1.754922    0.154455   -0.317611   -0.055140    0.135579    0.366381
Br    0.031163   -0.152479   -0.239459    0.032254    0.002065   -0.014694
Br   -3.003248   -1.161573   -0.321480   -0.026294   -0.017393   -0.016289
H    -2.157000    1.325819    0.178059    0.184633   -0.400486   -1.909802
4
* Frequency(7)  336.5171
C    -1.757474    0.160730   -0.300655   -0.055140    0.135579    0.366381
Br    0.032656   -0.152384   -0.240139    0.032254    0.002065   -0.014694
Br   -3.004465   -1.162378   -0.322233   -0.026294   -0.017393   -0.016289
H    -2.148455    1.307284    0.089670    0.184633   -0.400486   -1.909802
4
* Frequency(7)  336.5171
C    -1.761777    0.171309   -0.272064   -0.055140    0.135579    0.366381
Br    0.035172   -0.152222   -0.241285    0.032254    0.002065   -0.014694
Br   -3.006517   -1.163736   -0.323505   -0.026294   -0.017393   -0.016289
H    -2.134048    1.276032   -0.059359    0.184633   -0.400486   -1.909802
4
* Frequency(7)  336.5171
C    -1.767364    0.185047   -0.234939   -0.055140    0.135579    0.366381
Br    0.038441   -0.152013   -0.242774    0.032254    0.002065   -0.014694
Br   -3.009181   -1.165498   -0.325155   -0.026294   -0.017393   -0.016289
H    -2.115339    1.235451   -0.252879    0.184633   -0.400486   -1.909802
4
* Frequency(7)  336.5171
C    -1.773631    0.200455   -0.193302   -0.055140    0.135579    0.366381
Br    0.042106   -0.151778   -0.244444    0.032254    0.002065   -0.014694
Br   -3.012169   -1.167475   -0.327006   -0.026294   -0.017393   -0.016289
H    -2.094356    1.189938   -0.469918    0.184633   -0.400486   -1.909802
