4
* (null), Energy   -1000.0000000
C    -1.773631    0.200455   -0.193302    0.350411   -1.056119    0.067961
Br    0.042106   -0.151778   -0.244444   -0.130492    0.054071   -0.002322
Br   -3.012169   -1.167475   -0.327006    0.071994    0.121332    0.003135
H    -2.094356    1.189938   -0.469918    0.461474   -1.319107   -0.874262
4
* Frequency(8)  624.6443
C    -1.733808    0.080433   -0.185578    0.350411   -1.056119    0.067961
Br    0.027277   -0.145634   -0.244708   -0.130492    0.054071   -0.002322
Br   -3.003987   -1.153686   -0.326650    0.071994    0.121332    0.003135
H    -2.041912    1.040028   -0.569273    0.461474   -1.319107   -0.874262
4
* Frequency(8)  624.6443
C    -1.698302   -0.026583   -0.178692    0.350411   -1.056119    0.067961
Br    0.014054   -0.140155   -0.244943   -0.130492    0.054071   -0.002322
Br   -2.996692   -1.141391   -0.326332    0.071994    0.121332    0.003135
H    -1.995151    0.906364   -0.657862    0.461474   -1.319107   -0.874262
4
* Frequency(8)  624.6443
C    -1.670958   -0.108996   -0.173389    0.350411   -1.056119    0.067961
Br    0.003871   -0.135935   -0.245125   -0.130492    0.054071   -0.002322
Br   -2.991074   -1.131923   -0.326087    0.071994    0.121332    0.003135
H    -1.959141    0.803429   -0.726084    0.461474   -1.319107   -0.874262
4
* Frequency(8)  624.6443
C    -1.654740   -0.157875   -0.170243    0.350411   -1.056119    0.067961
Br   -0.002168   -0.133433   -0.245232   -0.130492    0.054071   -0.002322
Br   -2.987742   -1.126308   -0.325942    0.071994    0.121332    0.003135
H    -1.937783    0.742378   -0.766546    0.461474   -1.319107   -0.874262
4
* Frequency(8)  624.6443
C    -1.651406   -0.167924   -0.169597    0.350411   -1.056119    0.067961
Br   -0.003410   -0.132918   -0.245254   -0.130492    0.054071   -0.002322
Br   -2.987057   -1.125154   -0.325913    0.071994    0.121332    0.003135
H    -1.933392    0.729827   -0.774864    0.461474   -1.319107   -0.874262
4
* Frequency(8)  624.6443
C    -1.661317   -0.138053   -0.171519    0.350411   -1.056119    0.067961
Br    0.000281   -0.134448   -0.245188   -0.130492    0.054071   -0.002322
Br   -2.989093   -1.128585   -0.326001    0.071994    0.121332    0.003135
H    -1.946444    0.767137   -0.750137    0.461474   -1.319107   -0.874262
4
* Frequency(8)  624.6443
C    -1.683399   -0.071499   -0.175802    0.350411   -1.056119    0.067961
Br    0.008504   -0.137855   -0.245042   -0.130492    0.054071   -0.002322
Br   -2.993630   -1.136231   -0.326199    0.071994    0.121332    0.003135
H    -1.975525    0.850263   -0.695043    0.461474   -1.319107   -0.874262
4
* Frequency(8)  624.6443
C    -1.715259    0.024525   -0.181981    0.350411   -1.056119    0.067961
Br    0.020369   -0.142771   -0.244831   -0.130492    0.054071   -0.002322
Br   -3.000176   -1.147263   -0.326484    0.071994    0.121332    0.003135
H    -2.017483    0.970199   -0.615554    0.461474   -1.319107   -0.874262
4
* Frequency(8)  624.6443
C    -1.753444    0.139614   -0.189387    0.350411   -1.056119    0.067961
Br    0.034589   -0.148664   -0.244578   -0.130492    0.054071   -0.002322
Br   -3.008022   -1.160485   -0.326826    0.071994    0.121332    0.003135
H    -2.067772    1.113947   -0.520282    0.461474   -1.319107   -0.874262
4
* Frequency(8)  624.6443
C    -1.793817    0.261296   -0.197217    0.350411   -1.056119    0.067961
Br    0.049624   -0.154893   -0.244310   -0.130492    0.054071   -0.002322
Br   -3.016317   -1.174464   -0.327187    0.071994    0.121332    0.003135
H    -2.120941    1.265929   -0.419553    0.461474   -1.319107   -0.874262
4
* Frequency(8)  624.6443
C    -1.832003    0.376385   -0.204623    0.350411   -1.056119    0.067961
Br    0.063844   -0.160786   -0.244057   -0.130492    0.054071   -0.002322
Br   -3.024162   -1.187686   -0.327529    0.071994    0.121332    0.003135
H    -2.171229    1.409677   -0.324282    0.461474   -1.319107   -0.874262
4
* Frequency(8)  624.6443
C    -1.863863    0.472409   -0.210802    0.350411   -1.056119    0.067961
Br    0.075708   -0.165702   -0.243846   -0.130492    0.054071   -0.002322
Br   -3.030708   -1.198718   -0.327814    0.071994    0.121332    0.003135
H    -2.213187    1.529612   -0.244792    0.461474   -1.319107   -0.874262
4
* Frequency(8)  624.6443
C    -1.885945    0.538963   -0.215085    0.350411   -1.056119    0.067961
Br    0.083932   -0.169109   -0.243700   -0.130492    0.054071   -0.002322
Br   -3.035245   -1.206364   -0.328011    0.071994    0.121332    0.003135
H    -2.242268    1.612739   -0.189699    0.461474   -1.319107   -0.874262
4
* Frequency(8)  624.6443
C    -1.895856    0.568834   -0.217007    0.350411   -1.056119    0.067961
Br    0.087622   -0.170639   -0.243634   -0.130492    0.054071   -0.002322
Br   -3.037281   -1.209796   -0.328100    0.071994    0.121332    0.003135
H    -2.255320    1.650049   -0.164971    0.461474   -1.319107   -0.874262
4
* Frequency(8)  624.6443
C    -1.892522    0.558786   -0.216361    0.350411   -1.056119    0.067961
Br    0.086381   -0.170124   -0.243656   -0.130492    0.054071   -0.002322
Br   -3.036596   -1.208642   -0.328070    0.071994    0.121332    0.003135
H    -2.250930    1.637498   -0.173289    0.461474   -1.319107   -0.874262
4
* Frequency(8)  624.6443
C    -1.876304    0.509907   -0.213215    0.350411   -1.056119    0.067961
Br    0.080341   -0.167622   -0.243764   -0.130492    0.054071   -0.002322
Br   -3.033264   -1.203026   -0.327925    0.071994    0.121332    0.003135
H    -2.229572    1.576447   -0.213752    0.461474   -1.319107   -0.874262
4
* Frequency(8)  624.6443
C    -1.848960    0.427494   -0.207912    0.350411   -1.056119    0.067961
Br    0.070159   -0.163402   -0.243945   -0.130492    0.054071   -0.002322
Br   -3.027646   -1.193558   -0.327680    0.071994    0.121332    0.003135
H    -2.193561    1.473512   -0.281974    0.461474   -1.319107   -0.874262
4
* Frequency(8)  624.6443
C    -1.813453    0.320478   -0.201025    0.350411   -1.056119    0.067961
Br    0.056936   -0.157923   -0.244180   -0.130492    0.054071   -0.002322
Br   -3.020351   -1.181264   -0.327363    0.071994    0.121332    0.003135
H    -2.146800    1.339848   -0.370563    0.461474   -1.319107   -0.874262
4
* Frequency(8)  624.6443
C    -1.773631    0.200455   -0.193302    0.350411   -1.056119    0.067961
Br    0.042106   -0.151778   -0.244444   -0.130492    0.054071   -0.002322
Br   -3.012169   -1.167475   -0.327006    0.071994    0.121332    0.003135
H    -2.094356    1.189938   -0.469918    0.461474   -1.319107   -0.874262
