5
* (null), Energy   -1000.0000000
C     0.768115   -1.615315    1.487620   -0.068504    0.356143   -0.231203
H     0.466417   -0.928958    2.263102   -0.005828    0.308152   -0.170953
Br    4.033134   -0.193194   -0.110687   -0.302423   -0.936446    0.740916
Br    1.498499   -0.955844    0.036102   -0.698709    0.402686   -0.464377
Br    0.966702   -3.374148    2.017028    1.011503    0.476335   -0.239627
5
* Frequency(6)   48.2247
C     0.760330   -1.574841    1.461345   -0.068504    0.356143   -0.231203
H     0.465755   -0.893938    2.243675   -0.005828    0.308152   -0.170953
Br    3.998765   -0.299617   -0.026486   -0.302423   -0.936446    0.740916
Br    1.419094   -0.910080   -0.016672   -0.698709    0.402686   -0.464377
Br    1.081654   -3.320015    1.989796    1.011503    0.476335   -0.239627
5
* Frequency(6)   48.2247
C     0.753389   -1.538753    1.437917   -0.068504    0.356143   -0.231203
H     0.465165   -0.862713    2.226352   -0.005828    0.308152   -0.170953
Br    3.968120   -0.394506    0.048591   -0.302423   -0.936446    0.740916
Br    1.348294   -0.869276   -0.063727   -0.698709    0.402686   -0.464377
Br    1.184149   -3.271749    1.965514    1.011503    0.476335   -0.239627
5
* Frequency(6)   48.2247
C     0.748043   -1.510962    1.419876   -0.068504    0.356143   -0.231203
H     0.464710   -0.838667    2.213012   -0.005828    0.308152   -0.170953
Br    3.944521   -0.467581    0.106408   -0.302423   -0.936446    0.740916
Br    1.293771   -0.837853   -0.099964   -0.698709    0.402686   -0.464377
Br    1.263081   -3.234578    1.946815    1.011503    0.476335   -0.239627
5
* Frequency(6)   48.2247
C     0.744873   -1.494479    1.409175   -0.068504    0.356143   -0.231203
H     0.464440   -0.824405    2.205100   -0.005828    0.308152   -0.170953
Br    3.930525   -0.510921    0.140699   -0.302423   -0.936446    0.740916
Br    1.261434   -0.819216   -0.121457   -0.698709    0.402686   -0.464377
Br    1.309895   -3.212533    1.935725    1.011503    0.476335   -0.239627
5
* Frequency(6)   48.2247
C     0.744221   -1.491091    1.406976   -0.068504    0.356143   -0.231203
H     0.464385   -0.821473    2.203473   -0.005828    0.308152   -0.170953
Br    3.927647   -0.519831    0.147748   -0.302423   -0.936446    0.740916
Br    1.254786   -0.815385   -0.125875   -0.698709    0.402686   -0.464377
Br    1.319519   -3.208001    1.933445    1.011503    0.476335   -0.239627
5
* Frequency(6)   48.2247
C     0.746158   -1.501164    1.413515   -0.068504    0.356143   -0.231203
H     0.464549   -0.830189    2.208309   -0.005828    0.308152   -0.170953
Br    3.936201   -0.493345    0.126792   -0.302423   -0.936446    0.740916
Br    1.274548   -0.826774   -0.112741   -0.698709    0.402686   -0.464377
Br    1.290910   -3.221473    1.940223    1.011503    0.476335   -0.239627
5
* Frequency(6)   48.2247
C     0.750475   -1.523607    1.428085   -0.068504    0.356143   -0.231203
H     0.464917   -0.849607    2.219082   -0.005828    0.308152   -0.170953
Br    3.955259   -0.434332    0.080102   -0.302423   -0.936446    0.740916
Br    1.318579   -0.852150   -0.083477   -0.698709    0.402686   -0.464377
Br    1.227168   -3.251491    1.955323    1.011503    0.476335   -0.239627
5
* Frequency(6)   48.2247
C     0.756704   -1.555988    1.449106   -0.068504    0.356143   -0.231203
H     0.465447   -0.877625    2.234625   -0.005828    0.308152   -0.170953
Br    3.982756   -0.349189    0.012736   -0.302423   -0.936446    0.740916
Br    1.382107   -0.888763   -0.041255   -0.698709    0.402686   -0.464377
Br    1.135200   -3.294800    1.977111    1.011503    0.476335   -0.239627
5
* Frequency(6)   48.2247
C     0.764169   -1.594798    1.474301   -0.068504    0.356143   -0.231203
H     0.466082   -0.911205    2.253254   -0.005828    0.308152   -0.170953
Br    4.015712   -0.247141   -0.068004   -0.302423   -0.936446    0.740916
Br    1.458248   -0.932646    0.009350   -0.698709    0.402686   -0.464377
Br    1.024973   -3.346708    2.003224    1.011503    0.476335   -0.239627
5
* Frequency(6)   48.2247
C     0.772062   -1.635832    1.500939   -0.068504    0.356143   -0.231203
H     0.466753   -0.946710    2.272951   -0.005828    0.308152   -0.170953
Br    4.050556   -0.139247   -0.153370   -0.302423   -0.936446    0.740916
Br    1.538750   -0.979042    0.062854   -0.698709    0.402686   -0.464377
Br    0.908431   -3.401589    2.030833    1.011503    0.476335   -0.239627
5
* Frequency(6)   48.2247
C     0.779527   -1.674642    1.526134   -0.068504    0.356143   -0.231203
H     0.467388   -0.980290    2.291580   -0.005828    0.308152   -0.170953
Br    4.083512   -0.037200   -0.234110   -0.302423   -0.936446    0.740916
Br    1.614891   -1.022924    0.113458   -0.698709    0.402686   -0.464377
Br    0.798204   -3.453497    2.056945    1.011503    0.476335   -0.239627
5
* Frequency(6)   48.2247
C     0.785755   -1.707023    1.547156   -0.068504    0.356143   -0.231203
H     0.467918   -1.008308    2.307123   -0.005828    0.308152   -0.170953
Br    4.111009    0.047944   -0.301475   -0.302423   -0.936446    0.740916
Br    1.678419   -1.059537    0.155680   -0.698709    0.402686   -0.464377
Br    0.706236   -3.496806    2.078733    1.011503    0.476335   -0.239627
5
* Frequency(6)   48.2247
C     0.790072   -1.729466    1.561726   -0.068504    0.356143   -0.231203
H     0.468285   -1.027726    2.317896   -0.005828    0.308152   -0.170953
Br    4.130067    0.106956   -0.348166   -0.302423   -0.936446    0.740916
Br    1.722450   -1.084913    0.184944   -0.698709    0.402686   -0.464377
Br    0.642494   -3.526824    2.093833    1.011503    0.476335   -0.239627
5
* Frequency(6)   48.2247
C     0.792010   -1.739539    1.568265   -0.068504    0.356143   -0.231203
H     0.468450   -1.036442    2.322732   -0.005828    0.308152   -0.170953
Br    4.138620    0.133442   -0.369122   -0.302423   -0.936446    0.740916
Br    1.742212   -1.096302    0.198078   -0.698709    0.402686   -0.464377
Br    0.613885   -3.540296    2.100611    1.011503    0.476335   -0.239627
5
* Frequency(6)   48.2247
C     0.791358   -1.736151    1.566065   -0.068504    0.356143   -0.231203
H     0.468395   -1.033510    2.321105   -0.005828    0.308152   -0.170953
Br    4.135743    0.124533   -0.362072   -0.302423   -0.936446    0.740916
Br    1.735564   -1.092471    0.193660   -0.698709    0.402686   -0.464377
Br    0.623509   -3.535764    2.098331    1.011503    0.476335   -0.239627
5
* Frequency(6)   48.2247
C     0.788188   -1.719668    1.555365   -0.068504    0.356143   -0.231203
H     0.468125   -1.019248    2.313193   -0.005828    0.308152   -0.170953
Br    4.121746    0.081192   -0.327781   -0.302423   -0.936446    0.740916
Br    1.703226   -1.073834    0.172168   -0.698709    0.402686   -0.464377
Br    0.670323   -3.513719    2.087241    1.011503    0.476335   -0.239627
5
* Frequency(6)   48.2247
C     0.782842   -1.691877    1.537323   -0.068504    0.356143   -0.231203
H     0.467670   -0.995202    2.299853   -0.005828    0.308152   -0.170953
Br    4.098147    0.008118   -0.269965   -0.302423   -0.936446    0.740916
Br    1.648703   -1.042411    0.135931   -0.698709    0.402686   -0.464377
Br    0.749255   -3.476548    2.068542    1.011503    0.476335   -0.239627
5
* Frequency(6)   48.2247
C     0.775901   -1.655789    1.513895   -0.068504    0.356143   -0.231203
H     0.467080   -0.963977    2.282530   -0.005828    0.308152   -0.170953
Br    4.067503   -0.086772   -0.194888   -0.302423   -0.936446    0.740916
Br    1.577903   -1.001607    0.088876   -0.698709    0.402686   -0.464377
Br    0.851750   -3.428281    2.044260    1.011503    0.476335   -0.239627
5
* Frequency(6)   48.2247
C     0.768115   -1.615315    1.487620   -0.068504    0.356143   -0.231203
H     0.466417   -0.928958    2.263102   -0.005828    0.308152   -0.170953
Br    4.033134   -0.193194   -0.110687   -0.302423   -0.936446    0.740916
Br    1.498499   -0.955844    0.036102   -0.698709    0.402686   -0.464377
Br    0.966702   -3.374148    2.017028    1.011503    0.476335   -0.239627
