5
* (null), Energy   -1000.0000000
C     0.768115   -1.615315    1.487620    0.330410    0.431074    0.050566
H     0.466417   -0.928958    2.263102    0.860237    0.525605    0.172616
Br    4.033134   -0.193194   -0.110687   -1.119673   -0.275999    0.053162
Br    1.498499   -0.955844    0.036102    1.050402   -0.084656    0.221011
Br    0.966702   -3.374148    2.017028    0.008749    0.289223   -0.283952
5
* Frequency(7)  174.0571
C     0.805665   -1.566326    1.493367    0.330410    0.431074    0.050566
H     0.564179   -0.869225    2.282719    0.860237    0.525605    0.172616
Br    3.905889   -0.224560   -0.104645   -1.119673   -0.275999    0.053162
Br    1.617872   -0.965464    0.061219    1.050402   -0.084656    0.221011
Br    0.967696   -3.341280    1.984758    0.008749    0.289223   -0.283952
5
* Frequency(7)  174.0571
C     0.839145   -1.522645    1.498491    0.330410    0.431074    0.050566
H     0.651346   -0.815966    2.300210    0.860237    0.525605    0.172616
Br    3.792433   -0.252527   -0.099258   -1.119673   -0.275999    0.053162
Br    1.724308   -0.974042    0.083613    1.050402   -0.084656    0.221011
Br    0.968583   -3.311973    1.955986    0.008749    0.289223   -0.283952
5
* Frequency(7)  174.0571
C     0.864928   -1.489007    1.502436    0.330410    0.431074    0.050566
H     0.718474   -0.774951    2.313680    0.860237    0.525605    0.172616
Br    3.705060   -0.274064   -0.095110   -1.119673   -0.275999    0.053162
Br    1.806275   -0.980648    0.100860    1.050402   -0.084656    0.221011
Br    0.969266   -3.289404    1.933828    0.008749    0.289223   -0.283952
5
* Frequency(7)  174.0571
C     0.880220   -1.469056    1.504777    0.330410    0.431074    0.050566
H     0.758287   -0.750625    2.321669    0.860237    0.525605    0.172616
Br    3.653240   -0.286838   -0.092650   -1.119673   -0.275999    0.053162
Br    1.854890   -0.984567    0.111089    1.050402   -0.084656    0.221011
Br    0.969671   -3.276018    1.920686    0.008749    0.289223   -0.283952
5
* Frequency(7)  174.0571
C     0.883364   -1.464955    1.505258    0.330410    0.431074    0.050566
H     0.766472   -0.745624    2.323312    0.860237    0.525605    0.172616
Br    3.642587   -0.289464   -0.092144   -1.119673   -0.275999    0.053162
Br    1.864884   -0.985372    0.113191    1.050402   -0.084656    0.221011
Br    0.969754   -3.273266    1.917984    0.008749    0.289223   -0.283952
5
* Frequency(7)  174.0571
C     0.874019   -1.477147    1.503828    0.330410    0.431074    0.050566
H     0.742141   -0.760490    2.318429    0.860237    0.525605    0.172616
Br    3.674255   -0.281658   -0.093647   -1.119673   -0.275999    0.053162
Br    1.835174   -0.982978    0.106940    1.050402   -0.084656    0.221011
Br    0.969506   -3.281446    1.926016    0.008749    0.289223   -0.283952
5
* Frequency(7)  174.0571
C     0.853197   -1.504312    1.500641    0.330410    0.431074    0.050566
H     0.687931   -0.793612    2.307552    0.860237    0.525605    0.172616
Br    3.744814   -0.264265   -0.096997   -1.119673   -0.275999    0.053162
Br    1.768981   -0.977643    0.093013    1.050402   -0.084656    0.221011
Br    0.968955   -3.299672    1.943910    0.008749    0.289223   -0.283952
5
* Frequency(7)  174.0571
C     0.823156   -1.543506    1.496044    0.330410    0.431074    0.050566
H     0.609717   -0.841401    2.291857    0.860237    0.525605    0.172616
Br    3.846617   -0.239171   -0.101831   -1.119673   -0.275999    0.053162
Br    1.673477   -0.969946    0.072918    1.050402   -0.084656    0.221011
Br    0.968159   -3.325969    1.969727    0.008749    0.289223   -0.283952
5
* Frequency(7)  174.0571
C     0.787150   -1.590482    1.490533    0.330410    0.431074    0.050566
H     0.515974   -0.898678    2.273047    0.860237    0.525605    0.172616
Br    3.968631   -0.209094   -0.107624   -1.119673   -0.275999    0.053162
Br    1.559011   -0.960720    0.048834    1.050402   -0.084656    0.221011
Br    0.967206   -3.357487    2.000670    0.008749    0.289223   -0.283952
5
* Frequency(7)  174.0571
C     0.749081   -1.640148    1.484707    0.330410    0.431074    0.050566
H     0.416861   -0.959237    2.253158    0.860237    0.525605    0.172616
Br    4.097636   -0.177295   -0.113749   -1.119673   -0.275999    0.053162
Br    1.437987   -0.950967    0.023370    1.050402   -0.084656    0.221011
Br    0.966198   -3.390810    2.033386    0.008749    0.289223   -0.283952
5
* Frequency(7)  174.0571
C     0.713075   -1.687124    1.479197    0.330410    0.431074    0.050566
H     0.323118   -1.016514    2.234348    0.860237    0.525605    0.172616
Br    4.219651   -0.147218   -0.119543   -1.119673   -0.275999    0.053162
Br    1.323521   -0.941741   -0.000715    1.050402   -0.084656    0.221011
Br    0.965245   -3.422328    2.064329    0.008749    0.289223   -0.283952
5
* Frequency(7)  174.0571
C     0.683034   -1.726318    1.474599    0.330410    0.431074    0.050566
H     0.244903   -1.064303    2.218653    0.860237    0.525605    0.172616
Br    4.321453   -0.122124   -0.124376   -1.119673   -0.275999    0.053162
Br    1.228017   -0.934044   -0.020809    1.050402   -0.084656    0.221011
Br    0.964449   -3.448624    2.090147    0.008749    0.289223   -0.283952
5
* Frequency(7)  174.0571
C     0.662212   -1.753483    1.471413    0.330410    0.431074    0.050566
H     0.190694   -1.097425    2.207775    0.860237    0.525605    0.172616
Br    4.392012   -0.104731   -0.127726   -1.119673   -0.275999    0.053162
Br    1.161823   -0.928709   -0.034737    1.050402   -0.084656    0.221011
Br    0.963898   -3.466851    2.108040    0.008749    0.289223   -0.283952
5
* Frequency(7)  174.0571
C     0.652867   -1.765676    1.469983    0.330410    0.431074    0.050566
H     0.166363   -1.112291    2.202893    0.860237    0.525605    0.172616
Br    4.423681   -0.096924   -0.129230   -1.119673   -0.275999    0.053162
Br    1.132114   -0.926315   -0.040988    1.050402   -0.084656    0.221011
Br    0.963650   -3.475031    2.116072    0.008749    0.289223   -0.283952
5
* Frequency(7)  174.0571
C     0.656011   -1.761574    1.470464    0.330410    0.431074    0.050566
H     0.174547   -1.107290    2.204536    0.860237    0.525605    0.172616
Br    4.413028   -0.099550   -0.128724   -1.119673   -0.275999    0.053162
Br    1.142108   -0.927121   -0.038885    1.050402   -0.084656    0.221011
Br    0.963733   -3.472279    2.113370    0.008749    0.289223   -0.283952
5
* Frequency(7)  174.0571
C     0.671303   -1.741623    1.472804    0.330410    0.431074    0.050566
H     0.214361   -1.082964    2.212525    0.860237    0.525605    0.172616
Br    4.361207   -0.112324   -0.126264   -1.119673   -0.275999    0.053162
Br    1.190722   -0.931039   -0.028656    1.050402   -0.084656    0.221011
Br    0.964138   -3.458893    2.100228    0.008749    0.289223   -0.283952
5
* Frequency(7)  174.0571
C     0.697086   -1.707985    1.476750    0.330410    0.431074    0.050566
H     0.281488   -1.041949    2.225994    0.860237    0.525605    0.172616
Br    4.273835   -0.133861   -0.122115   -1.119673   -0.275999    0.053162
Br    1.272689   -0.937645   -0.011410    1.050402   -0.084656    0.221011
Br    0.964821   -3.436324    2.078070    0.008749    0.289223   -0.283952
5
* Frequency(7)  174.0571
C     0.730566   -1.664304    1.481874    0.330410    0.431074    0.050566
H     0.368656   -0.988690    2.243486    0.860237    0.525605    0.172616
Br    4.160379   -0.161828   -0.116728   -1.119673   -0.275999    0.053162
Br    1.379126   -0.946223    0.010985    1.050402   -0.084656    0.221011
Br    0.965708   -3.407017    2.049298    0.008749    0.289223   -0.283952
5
* Frequency(7)  174.0571
C     0.768115   -1.615315    1.487620    0.330410    0.431074    0.050566
H     0.466417   -0.928958    2.263102    0.860237    0.525605    0.172616
Br    4.033134   -0.193194   -0.110687   -1.119673   -0.275999    0.053162
Br    1.498499   -0.955844    0.036102    1.050402   -0.084656    0.221011
Br    0.966702   -3.374148    2.017028    0.008749    0.289223   -0.283952
