5
* (null), Energy   -1000.0000000
C     0.768115   -1.615315    1.487620   -0.867692   -0.168261   -0.348154
H     0.466417   -0.928958    2.263102   -1.639051   -0.274430   -0.546805
Br    4.033134   -0.193194   -0.110687    0.027044   -0.029919   -0.058043
Br    1.498499   -0.955844    0.036102    0.047554    0.011353    0.143596
Br    0.966702   -3.374148    2.017028    0.076516    0.047321   -0.026318
5
* Frequency(8)  193.4971
C     0.669507   -1.634437    1.448054   -0.867692   -0.168261   -0.348154
H     0.280148   -0.960145    2.200961   -1.639051   -0.274430   -0.546805
Br    4.036207   -0.196594   -0.117283    0.027044   -0.029919   -0.058043
Br    1.503903   -0.954553    0.052421    0.047554    0.011353    0.143596
Br    0.975398   -3.368771    2.014037    0.076516    0.047321   -0.026318
5
* Frequency(8)  193.4971
C     0.581584   -1.651487    1.412776   -0.867692   -0.168261   -0.348154
H     0.114063   -0.987953    2.145553   -1.639051   -0.274430   -0.546805
Br    4.038948   -0.199626   -0.123165    0.027044   -0.029919   -0.058043
Br    1.508722   -0.953403    0.066971    0.047554    0.011353    0.143596
Br    0.983151   -3.363976    2.011370    0.076516    0.047321   -0.026318
5
* Frequency(8)  193.4971
C     0.513875   -1.664617    1.385608   -0.867692   -0.168261   -0.348154
H    -0.013838   -1.009368    2.102884   -1.639051   -0.274430   -0.546805
Br    4.041058   -0.201961   -0.127694    0.027044   -0.029919   -0.058043
Br    1.512432   -0.952517    0.078177    0.047554    0.011353    0.143596
Br    0.989122   -3.360283    2.009317    0.076516    0.047321   -0.026318
5
* Frequency(8)  193.4971
C     0.473716   -1.672404    1.369495   -0.867692   -0.168261   -0.348154
H    -0.089696   -1.022069    2.077577   -1.639051   -0.274430   -0.546805
Br    4.042310   -0.203345   -0.130380    0.027044   -0.029919   -0.058043
Br    1.514633   -0.951992    0.084823    0.047554    0.011353    0.143596
Br    0.992663   -3.358093    2.008099    0.076516    0.047321   -0.026318
5
* Frequency(8)  193.4971
C     0.465461   -1.674005    1.366182   -0.867692   -0.168261   -0.348154
H    -0.105291   -1.024680    2.072374   -1.639051   -0.274430   -0.546805
Br    4.042567   -0.203630   -0.130933    0.027044   -0.029919   -0.058043
Br    1.515086   -0.951883    0.086189    0.047554    0.011353    0.143596
Br    0.993391   -3.357643    2.007848    0.076516    0.047321   -0.026318
5
* Frequency(8)  193.4971
C     0.490002   -1.669246    1.376029   -0.867692   -0.168261   -0.348154
H    -0.058932   -1.016918    2.087840   -1.639051   -0.274430   -0.546805
Br    4.041802   -0.202784   -0.129291    0.027044   -0.029919   -0.058043
Br    1.513741   -0.952205    0.082127    0.047554    0.011353    0.143596
Br    0.991227   -3.358981    2.008593    0.076516    0.047321   -0.026318
5
* Frequency(8)  193.4971
C     0.544682   -1.658643    1.397969   -0.867692   -0.168261   -0.348154
H     0.044356   -0.999624    2.122298   -1.639051   -0.274430   -0.546805
Br    4.040098   -0.200898   -0.125633    0.027044   -0.029919   -0.058043
Br    1.510744   -0.952920    0.073078    0.047554    0.011353    0.143596
Br    0.986405   -3.361963    2.010251    0.076516    0.047321   -0.026318
5
* Frequency(8)  193.4971
C     0.623574   -1.643344    1.429624   -0.867692   -0.168261   -0.348154
H     0.193382   -0.974672    2.172015   -1.639051   -0.274430   -0.546805
Br    4.037639   -0.198178   -0.120356    0.027044   -0.029919   -0.058043
Br    1.506420   -0.953952    0.060022    0.047554    0.011353    0.143596
Br    0.979448   -3.366266    2.012644    0.076516    0.047321   -0.026318
5
* Frequency(8)  193.4971
C     0.718129   -1.625008    1.467564   -0.867692   -0.168261   -0.348154
H     0.371995   -0.944767    2.231602   -1.639051   -0.274430   -0.546805
Br    4.034692   -0.194918   -0.114031    0.027044   -0.029919   -0.058043
Br    1.501238   -0.955189    0.044374    0.047554    0.011353    0.143596
Br    0.971110   -3.371422    2.015512    0.076516    0.047321   -0.026318
5
* Frequency(8)  193.4971
C     0.818101   -1.605622    1.507677   -0.867692   -0.168261   -0.348154
H     0.560840   -0.913148    2.294603   -1.639051   -0.274430   -0.546805
Br    4.031576   -0.191471   -0.107343    0.027044   -0.029919   -0.058043
Br    1.495759   -0.956498    0.027829    0.047554    0.011353    0.143596
Br    0.962294   -3.376875    2.018544    0.076516    0.047321   -0.026318
5
* Frequency(8)  193.4971
C     0.912657   -1.587286    1.545616   -0.867692   -0.168261   -0.348154
H     0.739453   -0.883243    2.354190   -1.639051   -0.274430   -0.546805
Br    4.028629   -0.188210   -0.101018    0.027044   -0.029919   -0.058043
Br    1.490577   -0.957735    0.012181    0.047554    0.011353    0.143596
Br    0.953956   -3.382031    2.021412    0.076516    0.047321   -0.026318
5
* Frequency(8)  193.4971
C     0.991549   -1.571987    1.577271   -0.867692   -0.168261   -0.348154
H     0.888479   -0.858291    2.403907   -1.639051   -0.274430   -0.546805
Br    4.026170   -0.185490   -0.095740    0.027044   -0.029919   -0.058043
Br    1.486254   -0.958767   -0.000875    0.047554    0.011353    0.143596
Br    0.946999   -3.386334    2.023805    0.076516    0.047321   -0.026318
5
* Frequency(8)  193.4971
C     1.046229   -1.561384    1.599211   -0.867692   -0.168261   -0.348154
H     0.991767   -0.840997    2.438365   -1.639051   -0.274430   -0.546805
Br    4.024465   -0.183605   -0.092083    0.027044   -0.029919   -0.058043
Br    1.483257   -0.959482   -0.009924    0.047554    0.011353    0.143596
Br    0.942177   -3.389316    2.025464    0.076516    0.047321   -0.026318
5
* Frequency(8)  193.4971
C     1.070770   -1.556625    1.609058   -0.867692   -0.168261   -0.348154
H     1.038126   -0.833235    2.453830   -1.639051   -0.274430   -0.546805
Br    4.023701   -0.182759   -0.090441    0.027044   -0.029919   -0.058043
Br    1.481912   -0.959804   -0.013985    0.047554    0.011353    0.143596
Br    0.940013   -3.390654    2.026208    0.076516    0.047321   -0.026318
5
* Frequency(8)  193.4971
C     1.062515   -1.558226    1.605746   -0.867692   -0.168261   -0.348154
H     1.022531   -0.835846    2.448628   -1.639051   -0.274430   -0.546805
Br    4.023958   -0.183043   -0.090993    0.027044   -0.029919   -0.058043
Br    1.482364   -0.959696   -0.012619    0.047554    0.011353    0.143596
Br    0.940741   -3.390204    2.025958    0.076516    0.047321   -0.026318
5
* Frequency(8)  193.4971
C     1.022356   -1.566013    1.589632   -0.867692   -0.168261   -0.348154
H     0.946673   -0.848547    2.423321   -1.639051   -0.274430   -0.546805
Br    4.025209   -0.184428   -0.093680    0.027044   -0.029919   -0.058043
Br    1.484565   -0.959170   -0.005973    0.047554    0.011353    0.143596
Br    0.944282   -3.388014    2.024739    0.076516    0.047321   -0.026318
5
* Frequency(8)  193.4971
C     0.954647   -1.579143    1.562464   -0.867692   -0.168261   -0.348154
H     0.818771   -0.869962    2.380652   -1.639051   -0.274430   -0.546805
Br    4.027320   -0.186763   -0.098209    0.027044   -0.029919   -0.058043
Br    1.488276   -0.958284    0.005232    0.047554    0.011353    0.143596
Br    0.950253   -3.384321    2.022686    0.076516    0.047321   -0.026318
5
* Frequency(8)  193.4971
C     0.866724   -1.596193    1.527186   -0.867692   -0.168261   -0.348154
H     0.652687   -0.897770    2.325244   -1.639051   -0.274430   -0.546805
Br    4.030060   -0.189794   -0.104090    0.027044   -0.029919   -0.058043
Br    1.493095   -0.957134    0.019783    0.047554    0.011353    0.143596
Br    0.958006   -3.379526    2.020019    0.076516    0.047321   -0.026318
5
* Frequency(8)  193.4971
C     0.768115   -1.615315    1.487620   -0.867692   -0.168261   -0.348154
H     0.466417   -0.928958    2.263102   -1.639051   -0.274430   -0.546805
Br    4.033134   -0.193194   -0.110687    0.027044   -0.029919   -0.058043
Br    1.498499   -0.955844    0.036102    0.047554    0.011353    0.143596
Br    0.966702   -3.374148    2.017028    0.076516    0.047321   -0.026318
