5
* (null), Energy   -1000.0000000
C     0.768115   -1.615315    1.487620   -0.086065   -0.619638   -0.926433
H     0.466417   -0.928958    2.263102   -0.099032   -0.702165   -0.854924
Br    4.033134   -0.193194   -0.110687   -0.183370   -0.119640    0.008634
Br    1.498499   -0.955844    0.036102    0.280367    0.776327   -0.410328
Br    0.966702   -3.374148    2.017028   -0.082810   -0.554682    0.551747
5
* Frequency(9)  219.2051
C     0.758335   -1.685734    1.382336   -0.086065   -0.619638   -0.926433
H     0.455163   -1.008755    2.165945   -0.099032   -0.702165   -0.854924
Br    4.012295   -0.206791   -0.109706   -0.183370   -0.119640    0.008634
Br    1.530361   -0.867618   -0.010530    0.280367    0.776327   -0.410328
Br    0.957291   -3.437185    2.079731   -0.082810   -0.554682    0.551747
5
* Frequency(9)  219.2051
C     0.749614   -1.748521    1.288461   -0.086065   -0.619638   -0.926433
H     0.445128   -1.079905    2.079316   -0.099032   -0.702165   -0.854924
Br    3.993714   -0.218914   -0.108831   -0.183370   -0.119640    0.008634
Br    1.558770   -0.788953   -0.052108    0.280367    0.776327   -0.410328
Br    0.948900   -3.493391    2.135639   -0.082810   -0.554682    0.551747
5
* Frequency(9)  219.2051
C     0.742898   -1.796874    1.216168   -0.086065   -0.619638   -0.926433
H     0.437400   -1.134698    2.012603   -0.099032   -0.702165   -0.854924
Br    3.979405   -0.228250   -0.108157   -0.183370   -0.119640    0.008634
Br    1.580649   -0.728373   -0.084128    0.280367    0.776327   -0.410328
Br    0.942438   -3.536675    2.178694   -0.082810   -0.554682    0.551747
5
* Frequency(9)  219.2051
C     0.738914   -1.825552    1.173291   -0.086065   -0.619638   -0.926433
H     0.432817   -1.167195    1.973035   -0.099032   -0.702165   -0.854924
Br    3.970918   -0.233787   -0.107757   -0.183370   -0.119640    0.008634
Br    1.593624   -0.692443   -0.103118    0.280367    0.776327   -0.410328
Br    0.938606   -3.562347    2.204230   -0.082810   -0.554682    0.551747
5
* Frequency(9)  219.2051
C     0.738096   -1.831448    1.164476   -0.086065   -0.619638   -0.926433
H     0.431875   -1.173876    1.964901   -0.099032   -0.702165   -0.854924
Br    3.969173   -0.234925   -0.107675   -0.183370   -0.119640    0.008634
Br    1.596292   -0.685057   -0.107023    0.280367    0.776327   -0.410328
Br    0.937818   -3.567624    2.209480   -0.082810   -0.554682    0.551747
5
* Frequency(9)  219.2051
C     0.740530   -1.813922    1.190679   -0.086065   -0.619638   -0.926433
H     0.434676   -1.154016    1.989082   -0.099032   -0.702165   -0.854924
Br    3.974360   -0.231541   -0.107920   -0.183370   -0.119640    0.008634
Br    1.588362   -0.707015   -0.095417    0.280367    0.776327   -0.410328
Br    0.940160   -3.551935    2.193874   -0.082810   -0.554682    0.551747
5
* Frequency(9)  219.2051
C     0.745953   -1.774874    1.249060   -0.086065   -0.619638   -0.926433
H     0.440916   -1.109767    2.042957   -0.099032   -0.702165   -0.854924
Br    3.985915   -0.224002   -0.108464   -0.183370   -0.119640    0.008634
Br    1.570694   -0.755937   -0.069559    0.280367    0.776327   -0.410328
Br    0.945378   -3.516981    2.159105   -0.082810   -0.554682    0.551747
5
* Frequency(9)  219.2051
C     0.753779   -1.718535    1.333293   -0.086065   -0.619638   -0.926433
H     0.449921   -1.045925    2.120688   -0.099032   -0.702165   -0.854924
Br    4.002588   -0.213124   -0.109249   -0.183370   -0.119640    0.008634
Br    1.545203   -0.826522   -0.032251    0.280367    0.776327   -0.410328
Br    0.952907   -3.466548    2.108939   -0.082810   -0.554682    0.551747
5
* Frequency(9)  219.2051
C     0.763157   -1.651011    1.434250   -0.086065   -0.619638   -0.926433
H     0.460712   -0.969408    2.213852   -0.099032   -0.702165   -0.854924
Br    4.022570   -0.200087   -0.110189   -0.183370   -0.119640    0.008634
Br    1.514650   -0.911121    0.012464    0.280367    0.776327   -0.410328
Br    0.961932   -3.406103    2.048813   -0.082810   -0.554682    0.551747
5
* Frequency(9)  219.2051
C     0.773073   -1.579619    1.540990   -0.086065   -0.619638   -0.926433
H     0.472122   -0.888507    2.312353   -0.099032   -0.702165   -0.854924
Br    4.043697   -0.186302   -0.111184   -0.183370   -0.119640    0.008634
Br    1.482347   -1.000566    0.059740    0.280367    0.776327   -0.410328
Br    0.971473   -3.342194    1.985243   -0.082810   -0.554682    0.551747
5
* Frequency(9)  219.2051
C     0.782452   -1.512095    1.641947   -0.086065   -0.619638   -0.926433
H     0.482914   -0.811990    2.405517   -0.099032   -0.702165   -0.854924
Br    4.063680   -0.173265   -0.112125   -0.183370   -0.119640    0.008634
Br    1.451795   -1.085165    0.104455    0.280367    0.776327   -0.410328
Br    0.980497   -3.281749    1.925117   -0.082810   -0.554682    0.551747
5
* Frequency(9)  219.2051
C     0.790277   -1.455756    1.726180   -0.086065   -0.619638   -0.926433
H     0.491918   -0.748148    2.483248   -0.099032   -0.702165   -0.854924
Br    4.080352   -0.162387   -0.112910   -0.183370   -0.119640    0.008634
Br    1.426304   -1.155750    0.141763    0.280367    0.776327   -0.410328
Br    0.988026   -3.231316    1.874951   -0.082810   -0.554682    0.551747
5
* Frequency(9)  219.2051
C     0.795701   -1.416708    1.784561   -0.086065   -0.619638   -0.926433
H     0.498159   -0.703899    2.537123   -0.099032   -0.702165   -0.854924
Br    4.091908   -0.154847   -0.113454   -0.183370   -0.119640    0.008634
Br    1.408636   -1.204673    0.167620    0.280367    0.776327   -0.410328
Br    0.993244   -3.196361    1.840182   -0.082810   -0.554682    0.551747
5
* Frequency(9)  219.2051
C     0.798135   -1.399182    1.810764   -0.086065   -0.619638   -0.926433
H     0.500960   -0.684039    2.561304   -0.099032   -0.702165   -0.854924
Br    4.097094   -0.151463   -0.113698   -0.183370   -0.119640    0.008634
Br    1.400706   -1.226630    0.179226    0.280367    0.776327   -0.410328
Br    0.995586   -3.180673    1.824576   -0.082810   -0.554682    0.551747
5
* Frequency(9)  219.2051
C     0.797316   -1.405078    1.801950   -0.086065   -0.619638   -0.926433
H     0.500018   -0.690720    2.553170   -0.099032   -0.702165   -0.854924
Br    4.095349   -0.152602   -0.113616   -0.183370   -0.119640    0.008634
Br    1.403373   -1.219244    0.175322    0.280367    0.776327   -0.410328
Br    0.994798   -3.185950    1.829826   -0.082810   -0.554682    0.551747
5
* Frequency(9)  219.2051
C     0.793333   -1.433756    1.759073   -0.086065   -0.619638   -0.926433
H     0.495434   -0.723217    2.513602   -0.099032   -0.702165   -0.854924
Br    4.086863   -0.158139   -0.113216   -0.183370   -0.119640    0.008634
Br    1.416349   -1.183314    0.156331    0.280367    0.776327   -0.410328
Br    0.990966   -3.211622    1.855362   -0.082810   -0.554682    0.551747
5
* Frequency(9)  219.2051
C     0.786617   -1.482109    1.686780   -0.086065   -0.619638   -0.926433
H     0.487707   -0.778010    2.446889   -0.099032   -0.702165   -0.854924
Br    4.072554   -0.167475   -0.112543   -0.183370   -0.119640    0.008634
Br    1.438227   -1.122734    0.124312    0.280367    0.776327   -0.410328
Br    0.984504   -3.254906    1.898417   -0.082810   -0.554682    0.551747
5
* Frequency(9)  219.2051
C     0.777896   -1.544896    1.592905   -0.086065   -0.619638   -0.926433
H     0.477672   -0.849160    2.360260   -0.099032   -0.702165   -0.854924
Br    4.053973   -0.179598   -0.111668   -0.183370   -0.119640    0.008634
Br    1.466637   -1.044069    0.082733    0.280367    0.776327   -0.410328
Br    0.976113   -3.311112    1.954325   -0.082810   -0.554682    0.551747
5
* Frequency(9)  219.2051
C     0.768115   -1.615315    1.487620   -0.086065   -0.619638   -0.926433
H     0.466417   -0.928958    2.263102   -0.099032   -0.702165   -0.854924
Br    4.033134   -0.193194   -0.110687   -0.183370   -0.119640    0.008634
Br    1.498499   -0.955844    0.036102    0.280367    0.776327   -0.410328
Br    0.966702   -3.374148    2.017028   -0.082810   -0.554682    0.551747
